Synthetic/Texas/2k/Texas2k_series25_case1_summerpeak.m
% Case saved by PowerWorld Simulator, version 24, build date March 14, 2025
function mpc = Texas2k_series25_case1_summerpeak
mpc.version = '2';
mpc.baseMVA =  100.00;

%% bus data 
mpc.bus = [
1001	1	20.78	5.32	0.00	0.00	1	1.0184284	55.167917	115.00	1	1.100	0.900	6.17	0.00	0	0
1002	1	27.08	4.37	0.00	0.00	1	1.0190604	62.748804	115.00	1	1.100	0.900	6.17	0.00	0	0
1003	1	0.00	0.00	0.00	0.00	1	1.0239463	62.646079	115.00	1	1.100	0.900	6.17	0.00	0	0
1004	1	0.00	0.00	0.00	0.00	1	1.0245764	59.653955	230.00	1	1.100	0.900	6.17	0.00	0	0
1005	1	0.00	0.00	0.00	0.00	1	1.0211096	51.759179	115.00	1	1.100	0.900	6.17	0.00	0	0
1006	2	0.00	0.00	0.00	0.00	1	1.0292618	53.640699	13.80	1	1.100	0.900	6.17	0.00	0	0
1007	1	10.48	7.93	0.00	9.43	1	1.0300000	63.751416	115.00	1	1.100	0.900	6.17	0.00	0	0
1008	2	0.00	0.00	0.00	0.00	1	1.0269480	75.646845	115.00	1	1.100	0.900	6.17	0.00	0	0
1009	2	0.00	0.00	0.00	0.00	1	1.0267791	80.885775	13.80	1	1.100	0.900	6.17	0.00	0	0
1010	1	0.00	0.00	0.00	-4.17	1	1.0300000	64.488409	115.00	1	1.100	0.900	6.17	0.00	0	0
1011	2	0.00	0.00	0.00	0.00	1	1.0301093	67.313409	22.00	1	1.100	0.900	6.17	0.00	0	0
1012	1	2.99	0.85	0.00	9.50	1	1.0177312	55.015839	115.00	1	1.100	0.900	6.17	0.00	0	0
1013	1	29.38	8.34	0.00	0.00	1	1.0054203	70.459069	115.00	1	1.100	0.900	6.17	0.00	0	0
1014	1	2.22	0.63	0.00	0.00	1	1.0097527	75.300731	115.00	1	1.100	0.900	6.17	0.00	0	0
1015	1	7.51	2.13	0.00	0.00	1	1.0320313	63.482318	115.00	1	1.100	0.900	6.17	0.00	0	0
1016	1	2.89	0.82	0.00	30.00	1	1.0285425	57.494596	115.00	1	1.100	0.900	6.17	0.00	0	0
1017	1	34.67	-0.91	0.00	0.00	1	1.0176559	55.593443	115.00	1	1.100	0.900	6.17	0.00	0	0
1018	1	0.08	0.02	0.00	0.00	1	1.0158502	55.520838	115.00	1	1.100	0.900	6.17	0.00	0	0
1019	1	61.78	17.50	0.00	0.00	1	1.0136512	53.663705	115.00	1	1.100	0.900	6.17	0.00	0	0
1020	1	0.00	0.00	0.00	75.96	1	1.0300000	49.782834	115.00	1	1.100	0.900	6.17	0.00	0	0
1021	2	0.00	0.00	0.00	0.00	1	1.0400000	55.574491	13.80	1	1.100	0.900	6.17	0.00	0	0
1022	1	0.00	0.00	0.00	0.00	1	1.0322790	65.236471	115.00	1	1.100	0.900	6.17	0.00	0	0
1023	2	0.00	0.00	0.00	0.00	1	1.0400000	71.680495	13.80	1	1.100	0.900	6.17	0.00	0	0
1024	2	63.94	17.86	0.00	0.00	1	1.0135814	56.227174	115.00	1	1.100	0.900	6.17	0.00	0	0
1025	1	0.00	0.00	0.00	0.00	1	1.0235112	50.982592	115.00	1	1.100	0.900	6.17	0.00	0	0
1026	2	0.00	0.00	0.00	0.00	1	1.0400000	55.766073	13.80	1	1.100	0.900	6.17	0.00	0	0
1027	1	101.42	10.09	0.00	75.00	1	1.0166313	51.518985	115.00	1	1.100	0.900	6.17	0.00	0	0
1028	1	10.53	4.00	0.00	0.00	1	1.0326430	66.657055	115.00	1	1.100	0.900	6.17	0.00	0	0
1029	1	131.33	23.57	0.00	40.00	1	1.0127116	53.097015	115.00	1	1.100	0.900	6.17	0.00	0	0
1030	1	24.63	0.24	0.00	0.00	1	1.0324225	68.482942	115.00	1	1.100	0.900	6.17	0.00	0	0
1031	1	9.25	4.22	0.00	0.00	1	1.0136373	66.393745	115.00	1	1.100	0.900	6.17	0.00	0	0
1032	1	0.00	0.00	0.00	0.00	1	1.0120316	69.830096	115.00	1	1.100	0.900	6.17	0.00	0	0
1033	2	0.00	0.00	0.00	250.00	1	1.0192431	65.746540	230.00	1	1.100	0.900	6.17	0.00	0	0
1034	1	0.00	0.00	0.00	0.00	1	1.0184709	50.790626	115.00	1	1.100	0.900	6.17	0.00	0	0
1035	2	0.00	0.00	0.00	0.00	1	1.0285544	53.387072	13.80	1	1.100	0.900	6.17	0.00	0	0
1036	1	24.12	3.85	0.00	0.00	1	1.0106148	71.756805	115.00	1	1.100	0.900	6.17	0.00	0	0
1037	1	102.24	28.97	0.00	105.80	1	1.0200000	54.645250	115.00	1	1.100	0.900	6.17	0.00	0	0
1038	1	0.00	0.00	0.00	0.00	1	1.0312805	73.844371	115.00	1	1.100	0.900	6.17	0.00	0	0
1039	2	0.00	0.00	0.00	0.00	1	1.0400000	82.003673	22.00	1	1.100	0.900	6.17	0.00	0	0
1040	1	56.23	12.57	0.00	0.00	1	1.0196165	54.226520	115.00	1	1.100	0.900	6.17	0.00	0	0
1041	1	0.00	0.00	0.00	0.00	1	1.0182163	51.541908	115.00	1	1.100	0.900	6.17	0.00	0	0
1042	2	0.00	0.00	0.00	0.00	1	1.0400000	58.211955	13.80	1	1.100	0.900	6.17	0.00	0	0
1044	1	23.03	2.65	0.00	0.00	1	1.0183460	56.244803	115.00	1	1.100	0.900	6.17	0.00	0	0
1045	1	112.79	63.27	0.00	0.00	1	1.0089757	53.716767	115.00	1	1.100	0.900	6.17	0.00	0	0
1046	1	11.09	2.03	0.00	12.00	1	1.0278682	62.256154	115.00	1	1.100	0.900	6.17	0.00	0	0
1047	1	0.00	0.00	0.00	331.41	1	1.0400000	65.826608	115.00	1	1.100	0.900	6.17	0.00	0	0
1048	2	0.00	0.00	0.00	0.00	1	1.0400000	73.584764	18.00	1	1.100	0.900	6.17	0.00	0	0
1049	2	0.00	0.00	0.00	0.00	1	1.0400000	68.983721	18.00	1	1.100	0.900	6.17	0.00	0	0
1050	2	0.00	0.00	0.00	0.00	1	1.0400000	70.105623	18.00	1	1.100	0.900	6.17	0.00	0	0
1051	2	0.00	0.00	0.00	0.00	1	1.0400000	71.520921	18.00	1	1.100	0.900	6.17	0.00	0	0
1052	2	0.00	0.00	0.00	0.00	1	1.0400000	74.195266	18.00	1	1.100	0.900	6.17	0.00	0	0
1053	1	0.00	0.00	0.00	0.00	1	1.0161266	62.772855	230.00	1	1.100	0.900	6.17	0.00	0	0
1054	1	17.02	4.25	0.00	0.00	1	1.0240620	56.698009	115.00	1	1.100	0.900	6.17	0.00	0	0
1055	1	3.98	1.13	0.00	0.00	1	1.0137750	61.568831	115.00	1	1.100	0.900	6.17	0.00	0	0
1056	1	0.00	0.00	0.00	76.59	1	1.0300000	53.569895	115.00	1	1.100	0.900	6.17	0.00	0	0
1057	2	0.00	0.00	0.00	0.00	1	1.0400000	61.078456	18.00	1	1.100	0.900	6.17	0.00	0	0
1058	1	18.07	0.22	0.00	0.00	1	1.0240766	71.531699	115.00	1	1.100	0.900	6.17	0.00	0	0
1061	1	0.00	0.00	0.00	0.00	1	1.0189710	51.570745	115.00	1	1.100	0.900	6.17	0.00	0	0
1062	2	0.00	0.00	0.00	0.00	1	1.0400000	57.110954	13.80	1	1.100	0.900	6.17	0.00	0	0
1063	2	0.00	0.00	0.00	0.00	1	1.0400000	58.180062	13.80	1	1.100	0.900	6.17	0.00	0	0
1064	1	162.00	35.07	0.00	0.00	1	1.0092381	53.667473	115.00	1	1.100	0.900	6.17	0.00	0	0
1065	1	0.00	0.00	0.00	0.00	1	1.0183560	51.592172	115.00	1	1.100	0.900	6.17	0.00	0	0
1066	2	0.00	0.00	0.00	0.00	1	1.0400000	59.406509	13.80	1	1.100	0.900	6.17	0.00	0	0
1067	2	101.55	28.77	0.00	0.00	1	1.0175244	51.375970	115.00	1	1.100	0.900	6.17	0.00	0	0
1068	1	80.94	16.50	0.00	35.69	1	1.0200000	58.903988	115.00	1	1.100	0.900	6.17	0.00	0	0
1069	1	0.00	0.00	0.00	0.00	1	1.0240697	74.092110	115.00	1	1.100	0.900	6.17	0.00	0	0
1070	2	0.00	0.00	0.00	0.00	1	1.0240697	74.092110	13.80	1	1.100	0.900	6.17	0.00	0	0
1071	1	91.46	25.91	0.00	0.00	1	1.0171324	54.795409	115.00	1	1.100	0.900	6.17	0.00	0	0
1072	2	0.00	0.00	0.00	0.00	1	1.0400000	58.239237	18.00	1	1.100	0.900	6.17	0.00	0	0
1073	2	0.00	0.00	0.00	0.00	1	1.0400000	55.834692	18.00	1	1.100	0.900	6.17	0.00	0	0
1074	2	0.00	0.00	0.00	0.00	1	1.0400000	58.069074	18.00	1	1.100	0.900	6.17	0.00	0	0
1075	2	0.00	0.00	0.00	0.00	1	1.0400000	57.611807	18.00	1	1.100	0.900	6.17	0.00	0	0
1076	2	0.00	0.00	0.00	0.00	1	1.0400000	60.591089	18.00	1	1.100	0.900	6.17	0.00	0	0
1077	2	0.00	0.00	0.00	0.00	1	1.0400000	56.508437	18.00	1	1.100	0.900	6.17	0.00	0	0
1079	1	0.00	0.00	0.00	0.00	1	1.0002462	28.885068	500.00	1	1.100	0.900	6.17	0.00	0	0
1081	1	0.00	0.00	0.00	500.00	1	1.0232200	56.689561	230.00	1	1.100	0.900	6.17	0.00	0	0
1082	1	0.00	0.00	0.00	0.00	1	1.0257928	73.901332	115.00	1	1.100	0.900	6.17	0.00	0	0
1083	1	39.95	11.32	0.00	20.19	1	1.0300000	73.051019	115.00	1	1.100	0.900	6.17	0.00	0	0
1084	1	0.00	0.00	0.00	0.00	1	1.0152308	49.585314	115.00	1	1.100	0.900	6.17	0.00	0	0
1085	1	22.78	6.03	0.00	0.00	1	1.0061613	64.729206	115.00	1	1.100	0.900	6.17	0.00	0	0
1086	1	43.68	11.24	0.00	30.00	1	1.0074651	80.346276	115.00	1	1.100	0.900	6.17	0.00	0	0
1087	1	0.91	0.26	0.00	18.34	1	1.0300000	66.665968	115.00	1	1.100	0.900	6.17	0.00	0	0
1088	1	0.00	0.00	0.00	0.00	1	1.0103050	68.478107	115.00	1	1.100	0.900	6.17	0.00	0	0
1089	1	43.57	23.14	0.00	0.00	1	0.9857338	58.237956	115.00	1	1.100	0.900	6.17	0.00	0	0
1090	2	0.00	0.00	0.00	0.00	1	1.0182374	59.513772	115.00	1	1.100	0.900	6.17	0.00	0	0
1091	1	18.43	3.29	0.00	0.00	1	1.0302976	55.411169	161.00	1	1.100	0.900	6.17	0.00	0	0
1093	1	153.57	27.79	0.00	0.00	1	1.0124245	58.705541	230.00	1	1.100	0.900	6.17	0.00	0	0
1094	1	57.59	16.90	0.00	0.00	1	0.9943671	61.764707	115.00	1	1.100	0.900	6.17	0.00	0	0
1095	1	0.00	0.00	0.00	0.00	1	0.9937607	44.888853	500.00	1	1.100	0.900	6.17	0.00	0	0
1096	1	146.12	72.93	0.00	1050.00	1	1.0019736	48.685184	230.00	1	1.100	0.900	6.17	0.00	0	0
1097	1	69.42	-7.58	0.00	0.00	1	1.0196675	50.754273	115.00	1	1.100	0.900	6.17	0.00	0	0
1099	1	175.68	85.54	0.00	0.00	1	1.0094060	58.726628	230.00	1	1.100	0.900	6.17	0.00	0	0
1100	1	53.58	24.03	0.00	0.00	1	1.0149379	55.577875	115.00	1	1.100	0.900	6.17	0.00	0	0
1101	1	128.12	52.27	0.00	0.00	1	1.0161386	55.988705	230.00	1	1.100	0.900	6.17	0.00	0	0
1102	1	114.01	45.73	0.00	151.86	1	1.0400000	53.757130	115.00	1	1.100	0.900	6.17	0.00	0	0
1103	1	140.63	-10.05	0.00	0.00	1	1.0078156	52.399824	230.00	1	1.100	0.900	6.17	0.00	0	0
1104	1	125.19	86.93	0.00	80.00	1	1.0147589	51.224909	115.00	1	1.100	0.900	6.17	0.00	0	0
1105	1	114.69	41.56	0.00	0.00	1	1.0080842	55.240591	230.00	1	1.100	0.900	6.17	0.00	0	0
1106	1	62.69	25.52	0.00	0.00	1	1.0110821	55.847608	115.00	1	1.100	0.900	6.17	0.00	0	0
1107	1	133.45	33.91	0.00	0.00	1	1.0061145	51.150553	230.00	1	1.100	0.900	6.17	0.00	0	0
1108	1	125.99	52.80	0.00	0.00	1	1.0138371	51.073180	115.00	1	1.100	0.900	6.17	0.00	0	0
1109	1	184.67	48.39	0.00	0.00	1	1.0171833	55.994306	230.00	1	1.100	0.900	6.17	0.00	0	0
1110	1	110.09	45.17	0.00	0.00	1	1.0079964	54.437762	115.00	1	1.100	0.900	6.17	0.00	0	0
1111	1	173.45	55.26	0.00	0.00	1	1.0106043	45.811982	230.00	1	1.100	0.900	6.17	0.00	0	0
1112	1	144.51	111.62	0.00	0.00	1	0.9867208	47.770816	115.00	1	1.100	0.900	6.17	0.00	0	0
1113	1	142.18	75.88	0.00	0.00	1	1.0030525	51.877485	230.00	1	1.100	0.900	6.17	0.00	0	0
1114	1	90.83	49.49	0.00	60.00	1	1.0174276	50.626398	115.00	1	1.100	0.900	6.17	0.00	0	0
1115	1	182.49	55.26	0.00	250.00	1	1.0198566	54.885301	230.00	1	1.100	0.900	6.17	0.00	0	0
1116	1	81.15	55.04	0.00	0.00	1	0.9979857	51.369548	115.00	1	1.100	0.900	6.17	0.00	0	0
1117	1	197.47	28.72	0.00	0.00	1	1.0132798	54.009466	230.00	1	1.100	0.900	6.17	0.00	0	0
1118	1	72.53	20.79	0.00	0.00	1	1.0063796	51.362987	115.00	1	1.100	0.900	6.17	0.00	0	0
1119	1	152.36	-8.43	0.00	0.00	1	1.0077337	49.156925	230.00	1	1.100	0.900	6.17	0.00	0	0
1120	1	66.25	22.58	0.00	0.00	1	1.0121730	50.871484	115.00	1	1.100	0.900	6.17	0.00	0	0
1121	1	197.50	8.39	0.00	0.00	1	1.0086656	53.463951	230.00	1	1.100	0.900	6.17	0.00	0	0
1122	1	66.80	26.41	0.00	0.00	1	1.0025562	50.972813	115.00	1	1.100	0.900	6.17	0.00	0	0
1123	1	191.83	48.51	0.00	0.00	1	1.0032573	51.946923	230.00	1	1.100	0.900	6.17	0.00	0	0
1124	1	81.10	19.25	0.00	0.00	1	1.0137704	50.632252	115.00	1	1.100	0.900	6.17	0.00	0	0
1125	1	182.98	58.43	0.00	0.00	1	1.0146497	57.159879	230.00	1	1.100	0.900	6.17	0.00	0	0
1126	1	70.19	29.82	0.00	0.00	1	1.0066669	58.178600	115.00	1	1.100	0.900	6.17	0.00	0	0
1127	1	172.59	54.00	0.00	0.00	1	1.0111722	54.180161	230.00	1	1.100	0.900	6.17	0.00	0	0
1128	1	109.99	55.68	0.00	200.00	1	1.0319777	54.323309	115.00	1	1.100	0.900	6.17	0.00	0	0
1129	1	177.24	45.10	0.00	0.00	1	1.0196282	56.461150	230.00	1	1.100	0.900	6.17	0.00	0	0
1130	1	67.79	39.53	0.00	0.00	1	1.0156655	54.777683	115.00	1	1.100	0.900	6.17	0.00	0	0
1131	1	153.87	23.80	0.00	0.00	1	1.0106405	53.901298	230.00	1	1.100	0.900	6.17	0.00	0	0
1132	1	104.68	16.73	0.00	0.00	1	1.0199000	52.684076	115.00	1	1.100	0.900	6.17	0.00	0	0
1133	1	152.56	83.09	0.00	0.00	1	1.0057467	51.467875	230.00	1	1.100	0.900	6.17	0.00	0	0
1134	1	52.39	-7.53	0.00	0.00	1	1.0167054	51.288572	115.00	1	1.100	0.900	6.17	0.00	0	0
2001	2	87.84	22.68	0.00	0.00	2	1.0138669	8.314643	161.00	1	1.100	0.900	6.17	0.00	0	0
2002	1	0.00	0.00	0.00	0.00	2	1.0259784	0.978221	500.00	1	1.100	0.900	6.17	0.00	0	0
2003	1	0.00	0.00	0.00	0.00	2	1.0186990	0.045051	161.00	1	1.100	0.900	6.17	0.00	0	0
2007	1	16.12	2.70	0.00	0.00	2	1.0142419	5.465871	161.00	1	1.100	0.900	6.17	0.00	0	0
2008	1	12.43	2.28	0.00	0.00	2	1.0394629	59.250280	161.00	1	1.100	0.900	6.17	0.00	0	0
2009	1	57.37	11.09	0.00	120.00	2	1.0258745	25.560079	161.00	1	1.100	0.900	6.17	0.00	0	0
2010	1	67.54	16.15	0.00	0.00	2	1.0321347	38.439020	161.00	1	1.100	0.900	6.17	0.00	0	0
2011	1	0.00	0.00	0.00	0.00	2	1.0418832	54.647729	500.00	1	1.100	0.900	6.17	0.00	0	0
2012	1	0.00	0.00	0.00	27.69	2	1.0400000	59.200431	161.00	1	1.100	0.900	6.17	0.00	0	0
2013	2	0.00	0.00	0.00	0.00	2	1.0400000	57.983812	18.00	1	1.100	0.900	6.17	0.00	0	0
2014	1	41.39	3.21	0.00	0.00	2	1.0362436	57.701886	161.00	1	1.100	0.900	6.17	0.00	0	0
2015	1	8.75	1.33	0.00	0.00	2	1.0161839	3.066754	161.00	1	1.100	0.900	6.17	0.00	0	0
2016	1	71.93	26.49	0.00	0.00	2	1.0184045	-3.755410	161.00	1	1.100	0.900	6.17	0.00	0	0
2017	1	0.00	0.00	0.00	-200.00	2	1.0399139	53.600176	500.00	1	1.100	0.900	6.17	0.00	0	0
2018	1	0.00	0.00	0.00	0.00	2	1.0325087	56.985740	161.00	1	1.100	0.900	6.17	0.00	0	0
2019	2	0.00	0.00	0.00	0.00	2	1.0400000	57.286541	20.00	1	1.100	0.900	6.17	0.00	0	0
2020	1	47.97	13.59	0.00	0.00	2	1.0216413	24.980946	161.00	1	1.100	0.900	6.17	0.00	0	0
2021	1	0.00	0.00	0.00	0.00	2	1.0330411	4.368816	500.00	1	1.100	0.900	6.17	0.00	0	0
2022	1	13.39	3.28	0.00	0.00	2	1.0217990	7.192906	161.00	1	1.100	0.900	6.17	0.00	0	0
2023	2	0.00	0.00	0.00	0.00	2	1.0400000	8.118911	13.80	1	1.100	0.900	6.17	0.00	0	0
2024	2	0.00	0.00	0.00	0.00	2	1.0400000	9.227557	13.80	1	1.100	0.900	6.17	0.00	0	0
2025	1	67.72	11.23	0.00	0.00	2	1.0216285	25.120768	161.00	1	1.100	0.900	6.17	0.00	0	0
2026	1	27.71	6.82	0.00	0.00	2	1.0257020	52.923899	161.00	1	1.100	0.900	6.17	0.00	0	0
2027	1	6.35	1.01	0.00	0.00	2	1.0224570	11.191387	161.00	1	1.100	0.900	6.17	0.00	0	0
2028	1	19.06	4.03	0.00	0.00	2	1.0207763	24.396043	161.00	1	1.100	0.900	6.17	0.00	0	0
2029	1	3.82	0.91	0.00	0.00	2	1.0417727	59.183586	161.00	1	1.100	0.900	6.17	0.00	0	0
2030	1	70.51	12.28	0.00	0.00	2	1.0046338	1.371233	161.00	1	1.100	0.900	6.17	0.00	0	0
2031	1	9.44	2.40	0.00	0.00	2	1.0282229	52.231045	161.00	1	1.100	0.900	6.17	0.00	0	0
2032	1	5.65	0.95	0.00	0.00	2	1.0161788	5.887064	161.00	1	1.100	0.900	6.17	0.00	0	0
2033	1	19.65	3.93	0.00	0.00	2	1.0107924	2.370850	161.00	1	1.100	0.900	6.17	0.00	0	0
2034	1	7.41	1.15	0.00	0.00	2	1.0215953	-2.094166	161.00	1	1.100	0.900	6.17	0.00	0	0
2035	1	8.45	1.76	0.00	0.00	2	1.0258962	38.429595	161.00	1	1.100	0.900	6.17	0.00	0	0
2036	1	66.08	11.78	0.00	0.00	2	1.0217127	25.468043	161.00	1	1.100	0.900	6.17	0.00	0	0
2037	1	4.48	1.52	0.00	0.00	2	1.0277198	5.005527	161.00	1	1.100	0.900	6.17	0.00	0	0
2038	1	4.19	3.26	0.00	0.00	2	1.0133263	0.065207	161.00	1	1.100	0.900	6.17	0.00	0	0
2039	1	8.26	1.58	0.00	0.00	2	1.0044983	6.599036	161.00	1	1.100	0.900	6.17	0.00	0	0
2040	1	16.75	4.51	0.00	0.00	2	1.0214373	7.881581	161.00	1	1.100	0.900	6.17	0.00	0	0
2041	1	0.00	0.00	0.00	0.00	2	1.0422141	61.094289	161.00	1	1.100	0.900	6.17	0.00	0	0
2042	2	0.00	0.00	0.00	0.00	2	1.0400000	66.277720	18.00	1	1.100	0.900	6.17	0.00	0	0
2043	1	7.85	-0.63	0.00	0.00	2	1.0213654	-2.087365	161.00	1	1.100	0.900	6.17	0.00	0	0
2044	1	41.32	7.76	0.00	0.00	2	1.0212791	-1.429892	161.00	1	1.100	0.900	6.17	0.00	0	0
2045	1	23.61	6.40	0.00	0.00	2	1.0213784	24.890512	161.00	1	1.100	0.900	6.17	0.00	0	0
2046	1	35.74	23.80	0.00	0.00	2	1.0223657	-2.028074	161.00	1	1.100	0.900	6.17	0.00	0	0
2047	1	20.15	4.24	0.00	0.00	2	1.0193923	-0.206275	161.00	1	1.100	0.900	6.17	0.00	0	0
2048	1	9.44	1.82	0.00	0.00	2	1.0292602	54.699710	161.00	1	1.100	0.900	6.17	0.00	0	0
2049	1	17.25	3.28	0.00	0.00	2	1.0292174	35.126828	161.00	1	1.100	0.900	6.17	0.00	0	0
2050	1	3.66	1.04	0.00	0.00	2	1.0209852	12.068193	161.00	1	1.100	0.900	6.17	0.00	0	0
2051	1	33.68	5.06	0.00	46.33	2	1.0200000	15.053881	161.00	1	1.100	0.900	6.17	0.00	0	0
2052	1	39.67	5.00	0.00	0.00	2	1.0355798	58.327244	161.00	1	1.100	0.900	6.17	0.00	0	0
2053	1	56.93	8.25	0.00	0.00	2	0.9999892	14.244720	161.00	1	1.100	0.900	6.17	0.00	0	0
2054	1	0.00	0.00	0.00	750.00	2	1.0239082	24.003773	500.00	1	1.100	0.900	6.17	0.00	0	0
2055	1	90.64	1.75	0.00	0.00	2	1.0214031	24.886476	161.00	1	1.100	0.900	6.17	0.00	0	0
2058	1	0.00	0.00	0.00	0.00	2	1.0392810	59.765193	161.00	1	1.100	0.900	6.17	0.00	0	0
2060	1	5.52	0.88	0.00	0.00	2	1.0139269	5.600564	161.00	1	1.100	0.900	6.17	0.00	0	0
2061	1	0.00	0.00	0.00	0.00	2	1.0384340	41.869713	161.00	1	1.100	0.900	6.17	0.00	0	0
2062	2	0.00	0.00	0.00	0.00	2	1.0400000	46.669496	18.00	1	1.100	0.900	6.17	0.00	0	0
2063	2	82.36	18.59	0.00	39.37	2	1.0299889	-1.536356	161.00	1	1.100	0.900	6.17	0.00	0	0
2064	1	11.42	3.22	0.00	0.00	2	1.0173971	6.344765	161.00	1	1.100	0.900	6.17	0.00	0	0
2065	1	103.15	22.20	0.00	94.65	2	1.0300000	2.353251	161.00	1	1.100	0.900	6.17	0.00	0	0
2066	1	10.42	2.77	0.00	0.00	2	1.0198197	44.845241	161.00	1	1.100	0.900	6.17	0.00	0	0
2067	1	63.88	15.29	0.00	0.00	2	1.0214269	25.174332	161.00	1	1.100	0.900	6.17	0.00	0	0
2068	1	7.81	1.63	0.00	0.00	2	1.0264430	26.057572	161.00	1	1.100	0.900	6.17	0.00	0	0
2069	1	34.61	6.21	0.00	114.24	2	1.0300000	-4.758483	161.00	1	1.100	0.900	6.17	0.00	0	0
2070	1	0.00	0.00	0.00	0.00	2	1.0244327	25.706272	161.00	1	1.100	0.900	6.17	0.00	0	0
2071	2	0.00	0.00	0.00	0.00	2	1.0400000	31.663532	18.00	1	1.100	0.900	6.17	0.00	0	0
2072	1	14.30	2.75	0.00	0.00	2	1.0215398	-3.324158	161.00	1	1.100	0.900	6.17	0.00	0	0
2073	1	0.00	0.00	0.00	0.00	2	1.0249588	50.158357	161.00	1	1.100	0.900	6.17	0.00	0	0
2074	1	0.00	0.00	0.00	0.00	2	1.0182911	53.070184	115.00	1	1.100	0.900	6.17	0.00	0	0
2076	2	0.00	0.00	0.00	0.00	2	1.0249588	50.158357	24.00	1	1.100	0.900	6.17	0.00	0	0
2077	1	0.00	0.00	0.00	0.00	2	1.0296188	7.000559	161.00	1	1.100	0.900	6.17	0.00	0	0
2078	2	0.00	0.00	0.00	0.00	2	1.0400000	14.937308	13.80	1	1.100	0.900	6.17	0.00	0	0
2079	1	6.22	1.27	0.00	0.00	2	1.0223116	44.905148	161.00	1	1.100	0.900	6.17	0.00	0	0
2080	1	27.45	13.98	0.00	0.00	2	1.0143804	10.838746	161.00	1	1.100	0.900	6.17	0.00	0	0
...
];

%% generator data 
mpc.gen = [
1006	120.00	25.60	25.60	-17.30	1.0400	133.30	1	120.00	0.00	0.00	0.00	0.00	0.00	0.00	0.00	0	0	0	0	120.0000	0	0	0	0
1008	28.00	0.00	0.00	0.00	1.0400	31.10	1	28.00	0.00	0.00	0.00	0.00	0.00	0.00	0.00	0	0	0	0	28.0000	0	0	0	0
1009	222.00	0.00	0.00	0.00	1.0400	246.70	1	222.00	0.00	0.00	0.00	0.00	0.00	0.00	0.00	0	0	0	0	222.0000	0	0	0	0
1011	10.00	0.00	0.00	0.00	1.0400	11.10	1	10.00	0.00	0.00	0.00	0.00	0.00	0.00	0.00	0	0	0	0	10.0000	0	0	0	0
1021	231.50	24.05	49.30	-33.30	1.0400	257.20	1	231.50	0.00	0.00	0.00	0.00	0.00	0.00	0.00	0	0	0	0	231.5000	0	0	0	0
1023	180.00	18.16	38.30	-25.90	1.0400	200.00	1	180.00	1.00	0.00	0.00	0.00	0.00	0.00	0.00	0	0	0	0	180.0000	0	0	0	0
1024	16.80	0.00	0.00	0.00	1.0400	18.70	1	16.80	0.00	0.00	0.00	0.00	0.00	0.00	0.00	0	0	0	0	16.8000	0	0	0	0
1026	124.20	23.33	26.50	-17.90	1.0400	138.00	1	124.20	0.00	0.00	0.00	0.00	0.00	0.00	0.00	0	0	0	0	124.2000	0	0	0	0
1033	50.00	0.00	0.00	0.00	1.0400	55.60	1	50.00	0.00	0.00	0.00	0.00	0.00	0.00	0.00	0	0	0	0	50.0000	0	0	0	0
1035	89.50	19.10	19.10	-12.90	1.0400	99.40	1	89.50	0.00	0.00	0.00	0.00	0.00	0.00	0.00	0	0	0	0	89.5000	0	0	0	0
1039	132.00	8.96	28.10	-19.00	1.0400	146.70	1	132.00	2.00	0.00	0.00	0.00	0.00	0.00	0.00	0	0	0	0	132.0000	0	0	0	0
1042	121.90	23.12	26.00	-17.60	1.0400	135.40	1	121.90	1.00	0.00	0.00	0.00	0.00	0.00	0.00	0	0	0	0	121.9000	0	0	0	0
1048	65.00	2.63	33.10	-7.20	1.0400	72.20	1	65.00	41.00	0.00	0.00	0.00	0.00	0.00	0.00	0	0	0	0	65.0000	0	0	0	0
1049	64.00	-0.65	32.60	-7.10	1.0400	71.10	1	64.00	41.00	0.00	0.00	0.00	0.00	0.00	0.00	0	0	0	0	64.0000	0	0	0	0
1050	64.00	0.78	32.60	-7.10	1.0400	71.10	1	64.00	41.00	0.00	0.00	0.00	0.00	0.00	0.00	0	0	0	0	64.0000	0	0	0	0
1051	64.00	1.15	32.60	-7.10	1.0400	71.10	1	64.00	41.00	0.00	0.00	0.00	0.00	0.00	0.00	0	0	0	0	64.0000	0	0	0	0
1052	63.00	1.37	32.10	-7.00	1.0400	70.00	1	63.00	41.00	0.00	0.00	0.00	0.00	0.00	0.00	0	0	0	0	63.0000	0	0	0	0
1057	120.00	12.88	25.60	-17.30	1.0400	133.30	1	120.00	0.00	0.00	0.00	0.00	0.00	0.00	0.00	0	0	0	0	120.0000	0	0	0	0
1062	71.00	15.36	36.10	-7.90	1.0400	78.90	1	71.00	45.00	0.00	0.00	0.00	0.00	0.00	0.00	0	0	0	0	71.0000	0	0	0	0
1063	71.00	15.28	36.10	-7.90	1.0400	78.90	1	71.00	45.00	0.00	0.00	0.00	0.00	0.00	0.00	0	0	0	0	71.0000	0	0	0	0
1066	142.50	28.47	30.40	-20.50	1.0400	158.30	1	142.50	0.00	0.00	0.00	0.00	0.00	0.00	0.00	0	0	0	0	142.5000	0	0	0	0
1067	58.80	12.50	12.50	-8.50	1.0400	65.30	1	58.80	0.10	0.00	0.00	0.00	0.00	0.00	0.00	0	0	0	0	58.8000	0	0	0	0
1070	0.00	0.00	35.70	-24.10	1.0400	186.30	0	167.70	0.00	0.00	0.00	0.00	0.00	0.00	0.00	0	0	0	0	167.7000	0	0	0	0
1072	114.38	38.14	104.90	-22.90	1.0400	228.90	1	206.00	53.30	0.00	0.00	0.00	0.00	0.00	0.00	0	0	0	0	206.0000	0	0	0	0
1073	85.68	97.32	104.90	-22.90	1.0400	228.90	1	206.00	55.60	0.00	0.00	0.00	0.00	0.00	0.00	0	0	0	0	206.0000	0	0	0	0
1074	101.18	38.44	84.90	-18.50	1.0400	185.20	1	166.70	84.80	0.00	0.00	0.00	0.00	0.00	0.00	0	0	0	0	166.7000	0	0	0	0
1075	122.00	54.24	84.90	-18.50	1.0400	185.20	1	166.70	92.20	0.00	0.00	0.00	0.00	0.00	0.00	0	0	0	0	166.7000	0	0	0	0
1076	128.00	30.84	80.50	-17.60	1.0400	175.80	1	158.20	82.70	0.00	0.00	0.00	0.00	0.00	0.00	0	0	0	0	158.2000	0	0	0	0
1077	95.20	64.00	80.50	-17.60	1.0400	175.80	1	158.20	95.20	0.00	0.00	0.00	0.00	0.00	0.00	0	0	0	0	158.2000	0	0	0	0
1090	36.00	0.00	0.00	0.00	1.0400	40.00	1	36.00	0.00	0.00	0.00	0.00	0.00	0.00	0.00	0	0	0	0	36.0000	0	0	0	0
1090	60.00	12.80	12.80	-8.60	1.0400	66.70	1	60.00	0.10	0.00	0.00	0.00	0.00	0.00	0.00	0	0	0	0	60.0000	0	0	0	0
2001	10.00	0.00	0.00	0.00	1.0400	11.10	1	10.00	0.00	0.00	0.00	0.00	0.00	0.00	0.00	0	0	0	0	10.0000	0	0	0	0
2013	211.20	-5.21	45.00	-30.40	1.0400	234.70	1	211.20	0.00	0.00	0.00	0.00	0.00	0.00	0.00	0	0	0	0	211.2000	0	0	0	0
2019	218.00	3.31	46.40	-31.40	1.0400	242.20	1	218.00	218.00	0.00	0.00	0.00	0.00	0.00	0.00	0	0	0	0	218.0000	0	0	0	0
2023	87.00	10.56	44.30	-9.70	1.0400	96.70	1	87.00	20.00	0.00	0.00	0.00	0.00	0.00	0.00	0	0	0	0	87.0000	0	0	0	0
2024	76.00	8.34	38.70	-8.40	1.0400	84.40	1	76.00	40.00	0.00	0.00	0.00	0.00	0.00	0.00	0	0	0	0	76.0000	0	0	0	0
2042	79.60	-1.15	17.00	-11.50	1.0400	88.40	1	79.60	4.00	0.00	0.00	0.00	0.00	0.00	0.00	0	0	0	0	79.6000	0	0	0	0
2062	135.40	4.80	28.80	-19.50	1.0400	150.40	1	135.40	6.80	0.00	0.00	0.00	0.00	0.00	0.00	0	0	0	0	135.4000	0	0	0	0
2063	50.00	19.20	19.20	-2.40	1.0400	55.60	1	50.00	25.00	0.00	0.00	0.00	0.00	0.00	0.00	0	0	0	0	50.0000	0	0	0	0
2063	50.00	19.20	19.20	-2.40	1.0400	55.60	1	50.00	25.00	0.00	0.00	0.00	0.00	0.00	0.00	0	0	0	0	50.0000	0	0	0	0
2071	161.00	22.76	34.30	-23.20	1.0400	178.90	1	161.00	0.00	0.00	0.00	0.00	0.00	0.00	0.00	0	0	0	0	161.0000	0	0	0	0
2076	0.00	0.00	53.20	-36.00	1.0400	277.80	0	250.00	1.00	0.00	0.00	0.00	0.00	0.00	0.00	0	0	0	0	250.0000	0	0	0	0
2078	112.50	12.18	24.00	-16.20	1.0400	125.00	1	112.50	5.60	0.00	0.00	0.00	0.00	0.00	0.00	0	0	0	0	112.5000	0	0	0	0
2082	17.00	8.70	8.70	-1.90	1.0400	18.90	1	17.00	2.00	0.00	0.00	0.00	0.00	0.00	0.00	0	0	0	0	17.0000	0	0	0	0
2083	19.70	5.91	10.00	-2.20	1.0400	21.90	1	19.70	2.00	0.00	0.00	0.00	0.00	0.00	0.00	0	0	0	0	19.7000	0	0	0	0
2084	19.70	4.23	10.00	-2.20	1.0400	21.90	1	19.70	2.00	0.00	0.00	0.00	0.00	0.00	0.00	0	0	0	0	19.7000	0	0	0	0
2085	19.70	3.89	10.00	-2.20	1.0400	21.90	1	19.70	2.00	0.00	0.00	0.00	0.00	0.00	0.00	0	0	0	0	19.7000	0	0	0	0
2089	67.60	14.40	14.40	-9.70	1.0400	75.10	1	67.60	0.00	0.00	0.00	0.00	0.00	0.00	0.00	0	0	0	0	67.6000	0	0	0	0
2091	30.20	6.40	6.40	-4.30	1.0400	33.60	1	30.20	2.50	0.00	0.00	0.00	0.00	0.00	0.00	0	0	0	0	30.2000	0	0	0	0
2099	150.00	25.05	31.90	-21.60	1.0400	166.70	1	150.00	0.00	0.00	0.00	0.00	0.00	0.00	0.00	0	0	0	0	150.0000	0	0	0	0
2103	150.00	33.35	146.10	-31.90	1.0400	318.90	1	287.00	150.00	0.00	0.00	0.00	0.00	0.00	0.00	0	0	0	0	287.0000	0	0	0	0
2104	0.00	0.00	101.30	-22.10	1.0400	221.10	0	199.00	125.00	0.00	0.00	0.00	0.00	0.00	0.00	0	0	0	0	199.0000	0	0	0	0
2105	0.00	0.00	101.30	-22.10	1.0400	221.10	0	199.00	125.00	0.00	0.00	0.00	0.00	0.00	0.00	0	0	0	0	199.0000	0	0	0	0
2106	10.00	0.00	0.00	0.00	1.0400	11.10	1	10.00	0.00	0.00	0.00	0.00	0.00	0.00	0.00	0	0	0	0	10.0000	0	0	0	0
2115	92.80	9.83	103.80	-22.60	1.0400	226.70	1	204.00	65.00	0.00	0.00	0.00	0.00	0.00	0.00	0	0	0	0	204.0000	0	0	0	0
2116	92.80	23.23	103.80	-22.60	1.0400	226.70	1	204.00	65.00	0.00	0.00	0.00	0.00	0.00	0.00	0	0	0	0	204.0000	0	0	0	0
2117	127.80	12.00	77.90	-17.00	1.0400	170.00	1	153.00	90.00	0.00	0.00	0.00	0.00	0.00	0.00	0	0	0	0	153.0000	0	0	0	0
2118	127.80	23.26	77.90	-17.00	1.0400	170.00	1	153.00	90.00	0.00	0.00	0.00	0.00	0.00	0.00	0	0	0	0	153.0000	0	0	0	0
2119	145.00	19.88	73.80	-16.10	1.0400	161.10	1	145.00	90.00	0.00	0.00	0.00	0.00	0.00	0.00	0	0	0	0	145.0000	0	0	0	0
2120	0.00	0.00	73.80	-16.10	1.0400	161.10	0	145.00	90.00	0.00	0.00	0.00	0.00	0.00	0.00	0	0	0	0	145.0000	0	0	0	0
3004	37.50	4.02	8.00	-5.40	1.0400	41.70	1	37.50	0.10	0.00	0.00	0.00	0.00	0.00	0.00	0	0	0	0	37.5000	0	0	0	0
3014	13.80	5.30	5.30	-0.70	1.0400	15.30	1	13.80	7.00	0.00	0.00	0.00	0.00	0.00	0.00	0	0	0	0	13.8000	0	0	0	0
3017	418.90	73.71	89.20	-60.30	1.0400	465.40	1	418.90	23.00	0.00	0.00	0.00	0.00	0.00	0.00	0	0	0	0	418.9000	0	0	0	0
3020	199.50	42.50	42.50	-28.70	1.0400	221.70	1	199.50	2.60	0.00	0.00	0.00	0.00	0.00	0.00	0	0	0	0	199.5000	0	0	0	0
3028	0.00	0.00	42.60	-28.80	1.0400	222.20	0	200.00	50.00	0.00	0.00	0.00	0.00	0.00	0.00	0	0	0	0	200.0000	0	0	0	0
3034	311.00	4.88	66.20	-44.80	1.0400	345.60	1	311.00	0.00	0.00	0.00	0.00	0.00	0.00	0.00	0	0	0	0	311.0000	0	0	0	0
3039	209.00	44.50	44.50	-30.10	1.0400	232.20	1	209.00	0.00	0.00	0.00	0.00	0.00	0.00	0.00	0	0	0	0	209.0000	0	0	0	0
3055	0.00	0.00	63.70	-43.10	1.0400	332.20	0	299.00	0.10	0.00	0.00	0.00	0.00	0.00	0.00	0	0	0	0	299.0000	0	0	0	0
3056	223.50	47.60	47.60	-32.20	1.0400	248.30	1	223.50	0.10	0.00	0.00	0.00	0.00	0.00	0.00	0	0	0	0	223.5000	0	0	0	0
3057	0.00	0.00	45.40	-30.70	1.0400	236.70	0	213.00	0.10	0.00	0.00	0.00	0.00	0.00	0.00	0	0	0	0	213.0000	0	0	0	0
3060	214.50	45.70	45.70	-30.90	1.0400	238.30	1	214.50	7.50	0.00	0.00	0.00	0.00	0.00	0.00	0	0	0	0	214.5000	0	0	0	0
3061	186.00	39.60	39.60	-26.80	1.0400	206.70	1	186.00	14.90	0.00	0.00	0.00	0.00	0.00	0.00	0	0	0	0	186.0000	0	0	0	0
3062	149.50	31.80	31.80	-21.50	1.0400	166.10	1	149.50	21.50	0.00	0.00	0.00	0.00	0.00	0.00	0	0	0	0	149.5000	0	0	0	0
3063	112.50	24.00	24.00	-16.20	1.0400	125.00	1	112.50	5.60	0.00	0.00	0.00	0.00	0.00	0.00	0	0	0	0	112.5000	0	0	0	0
3065	182.40	4.60	38.90	-26.30	1.0400	202.70	1	182.40	0.10	0.00	0.00	0.00	0.00	0.00	0.00	0	0	0	0	182.4000	0	0	0	0
3068	152.00	25.73	32.40	-21.90	1.0400	168.90	1	152.00	0.00	0.00	0.00	0.00	0.00	0.00	0.00	0	0	0	0	152.0000	0	0	0	0
3071	170.20	36.30	36.30	-24.50	1.0400	189.10	1	170.20	0.00	0.00	0.00	0.00	0.00	0.00	0.00	0	0	0	0	170.2000	0	0	0	0
3074	99.80	21.30	21.30	-14.40	1.0400	110.90	1	99.80	0.00	0.00	0.00	0.00	0.00	0.00	0.00	0	0	0	0	99.8000	0	0	0	0
3081	249.00	53.00	53.00	-35.90	1.0400	276.70	1	249.00	0.00	0.00	0.00	0.00	0.00	0.00	0.00	0	0	0	0	249.0000	0	0	0	0
3084	0.00	0.00	49.50	-33.50	1.0400	258.30	0	232.50	0.00	0.00	0.00	0.00	0.00	0.00	0.00	0	0	0	0	232.5000	0	0	0	0
3086	75.00	5.30	16.00	-10.80	1.0400	83.30	1	75.00	0.00	0.00	0.00	0.00	0.00	0.00	0.00	0	0	0	0	75.0000	0	0	0	0
3087	73.50	7.31	15.70	-10.60	1.0400	81.70	1	73.50	0.00	0.00	0.00	0.00	0.00	0.00	0.00	0	0	0	0	73.5000	0	0	0	0
3092	200.00	23.98	42.60	-28.80	1.0400	222.20	1	200.00	50.00	0.00	0.00	0.00	0.00	0.00	0.00	0	0	0	0	200.0000	0	0	0	0
3095	120.60	25.70	25.70	-17.40	1.0400	134.00	1	120.60	0.00	0.00	0.00	0.00	0.00	0.00	0.00	0	0	0	0	120.6000	0	0	0	0
3098	182.40	33.15	38.90	-26.30	1.0400	202.70	1	182.40	10.40	0.00	0.00	0.00	0.00	0.00	0.00	0	0	0	0	182.4000	0	0	0	0
3104	0.00	0.00	7.00	-0.90	1.0400	20.30	0	18.30	11.00	0.00	0.00	0.00	0.00	0.00	0.00	0	0	0	0	18.3000	0	0	0	0
3105	0.00	0.00	7.00	-0.90	1.0400	20.30	0	18.30	11.00	0.00	0.00	0.00	0.00	0.00	0.00	0	0	0	0	18.3000	0	0	0	0
3106	18.30	7.00	7.00	-0.90	1.0400	20.30	1	18.30	11.00	0.00	0.00	0.00	0.00	0.00	0.00	0	0	0	0	18.3000	0	0	0	0
3110	0.00	0.00	33.10	-22.40	1.0400	172.70	0	155.40	0.00	0.00	0.00	0.00	0.00	0.00	0.00	0	0	0	0	155.4000	0	0	0	0
3112	80.00	17.00	17.00	-11.50	1.0400	88.90	1	80.00	1.00	0.00	0.00	0.00	0.00	0.00	0.00	0	0	0	0	80.0000	0	0	0	0
3113	69.60	14.67	14.80	-10.00	1.0400	77.30	1	69.60	1.00	0.00	0.00	0.00	0.00	0.00	0.00	0	0	0	0	69.6000	0	0	0	0
3115	30.00	6.40	6.40	-4.30	1.0400	33.30	1	30.00	0.00	0.00	0.00	0.00	0.00	0.00	0.00	0	0	0	0	30.0000	0	0	0	0
3117	120.00	14.09	25.60	-17.30	1.0400	133.30	1	120.00	0.00	0.00	0.00	0.00	0.00	0.00	0.00	0	0	0	0	120.0000	0	0	0	0
3120	100.00	0.00	0.00	0.00	1.0400	111.10	1	100.00	0.00	0.00	0.00	0.00	0.00	0.00	0.00	0	0	0	0	100.0000	0	0	0	0
3122	197.00	34.06	42.00	-28.40	1.0400	218.90	1	197.00	0.00	0.00	0.00	0.00	0.00	0.00	0.00	0	0	0	0	197.0000	0	0	0	0
4007	10.00	0.00	0.00	0.00	1.0400	11.10	1	10.00	0.00	0.00	0.00	0.00	0.00	0.00	0.00	0	0	0	0	10.0000	0	0	0	0
4010	201.60	6.69	42.90	-29.00	1.0400	224.00	1	201.60	0.00	0.00	0.00	0.00	0.00	0.00	0.00	0	0	0	0	201.6000	0	0	0	0
4026	250.00	61.80	182.20	-47.70	1.0400	434.40	1	391.00	250.00	0.00	0.00	0.00	0.00	0.00	0.00	0	0	0	0	391.0000	0	0	0	0
4030	175.00	62.63	305.20	-79.90	1.0400	727.80	1	655.00	175.00	0.00	0.00	0.00	0.00	0.00	0.00	0	0	0	0	655.0000	0	0	0	0
4035	33.00	16.80	16.80	-3.70	1.0400	36.70	1	33.00	26.00	0.00	0.00	0.00	0.00	0.00	0.00	0	0	0	0	33.0000	0	0	0	0
4041	0.00	0.00	0.00	0.00	1.0400	11.10	0	10.00	0.00	0.00	0.00	0.00	0.00	0.00	0.00	0	0	0	0	10.0000	0	0	0	0
4045	10.50	1.42	4.00	-0.50	1.0400	11.70	1	10.50	3.00	0.00	0.00	0.00	0.00	0.00	0.00	0	0	0	0	10.5000	0	0	0	0
4046	10.00	1.40	3.80	-0.50	1.0400	11.10	1	10.00	3.00	0.00	0.00	0.00	0.00	0.00	0.00	0	0	0	0	10.0000	0	0	0	0
4047	10.00	2.10	3.80	-0.50	1.0400	11.10	1	10.00	3.00	0.00	0.00	0.00	0.00	0.00	0.00	0	0	0	0	10.0000	0	0	0	0
4050	272.60	30.65	58.10	-39.30	1.0400	302.90	1	272.60	0.20	0.00	0.00	0.00	0.00	0.00	0.00	0	0	0	0	272.6000	0	0	0	0
4052	32.50	16.50	16.50	-3.60	1.0400	36.10	1	32.50	18.00	0.00	0.00	0.00	0.00	0.00	0.00	0	0	0	0	32.5000	0	0	0	0
4058	124.00	7.91	78.90	-17.20	1.0400	172.20	1	155.00	0.00	0.00	0.00	0.00	0.00	0.00	0.00	0	0	0	0	155.0000	0	0	0	0
4059	93.00	19.24	78.90	-17.20	1.0400	172.20	1	155.00	0.00	0.00	0.00	0.00	0.00	0.00	0.00	0	0	0	0	155.0000	0	0	0	0
4060	120.00	6.54	76.30	-16.60	1.0400	166.70	1	150.00	0.00	0.00	0.00	0.00	0.00	0.00	0.00	0	0	0	0	150.0000	0	0	0	0
4065	150.00	0.00	0.00	0.00	1.0400	166.70	1	150.00	0.00	0.00	0.00	0.00	0.00	0.00	0.00	0	0	0	0	150.0000	0	0	0	0
4067	10.00	0.00	0.00	0.00	1.0400	11.10	1	10.00	0.00	0.00	0.00	0.00	0.00	0.00	0.00	0	0	0	0	10.0000	0	0	0	0
4068	10.00	0.00	0.00	0.00	1.0400	11.10	1	10.00	0.00	0.00	0.00	0.00	0.00	0.00	0.00	0	0	0	0	10.0000	0	0	0	0
4069	5.00	12.40	12.40	-3.20	1.0400	29.60	1	26.60	5.00	0.00	0.00	0.00	0.00	0.00	0.00	0	0	0	0	26.6000	0	0	0	0
4069	5.00	12.40	12.40	-3.20	1.0400	29.60	1	26.60	5.00	0.00	0.00	0.00	0.00	0.00	0.00	0	0	0	0	26.6000	0	0	0	0
4069	12.00	0.00	0.00	0.00	1.0400	13.30	1	12.00	0.00	0.00	0.00	0.00	0.00	0.00	0.00	0	0	0	0	12.0000	0	0	0	0
4075	100.00	20.29	92.10	-20.10	1.0400	201.10	1	181.00	100.00	0.00	0.00	0.00	0.00	0.00	0.00	0	0	0	0	181.0000	0	0	0	0
4076	0.00	0.00	90.10	-19.60	1.0400	196.70	0	177.00	70.00	0.00	0.00	0.00	0.00	0.00	0.00	0	0	0	0	177.0000	0	0	0	0
4077	112.80	24.54	90.10	-19.60	1.0400	196.70	1	177.00	70.00	0.00	0.00	0.00	0.00	0.00	0.00	0	0	0	0	177.0000	0	0	0	0
4082	100.00	20.11	162.40	-35.40	1.0400	354.40	1	319.00	100.00	0.00	0.00	0.00	0.00	0.00	0.00	0	0	0	0	319.0000	0	0	0	0
4083	106.40	18.97	148.60	-32.40	1.0400	324.40	1	292.00	60.00	0.00	0.00	0.00	0.00	0.00	0.00	0	0	0	0	292.0000	0	0	0	0
4084	118.20	11.32	79.90	-17.40	1.0400	174.40	1	157.00	60.00	0.00	0.00	0.00	0.00	0.00	0.00	0	0	0	0	157.0000	0	0	0	0
4085	118.20	14.93	79.90	-17.40	1.0400	174.40	1	157.00	60.00	0.00	0.00	0.00	0.00	0.00	0.00	0	0	0	0	157.0000	0	0	0	0
4090	10.00	0.00	0.00	0.00	1.0400	11.10	1	10.00	4.00	0.00	0.00	0.00	0.00	0.00	0.00	0	0	0	0	10.0000	0	0	0	0
4100	11.70	0.00	0.00	0.00	1.0400	13.00	1	11.70	0.00	0.00	0.00	0.00	0.00	0.00	0.00	0	0	0	0	11.7000	0	0	0	0
4100	11.70	0.00	0.00	0.00	1.0400	13.00	1	11.70	0.00	0.00	0.00	0.00	0.00	0.00	0.00	0	0	0	0	11.7000	0	0	0	0
4102	10.00	0.00	0.00	0.00	1.0400	11.10	1	10.00	0.00	0.00	0.00	0.00	0.00	0.00	0.00	0	0	0	0	10.0000	0	0	0	0
4103	0.00	0.00	9.30	-2.00	1.0400	20.30	0	18.30	7.50	0.00	0.00	0.00	0.00	0.00	0.00	0	0	0	0	18.3000	0	0	0	0
4103	18.30	9.30	9.30	-2.00	1.0400	20.30	1	18.30	7.50	0.00	0.00	0.00	0.00	0.00	0.00	0	0	0	0	18.3000	0	0	0	0
4103	18.30	9.30	9.30	-2.00	1.0400	20.30	1	18.30	7.50	0.00	0.00	0.00	0.00	0.00	0.00	0	0	0	0	18.3000	0	0	0	0
4103	18.30	9.30	9.30	-2.00	1.0400	20.30	1	18.30	7.50	0.00	0.00	0.00	0.00	0.00	0.00	0	0	0	0	18.3000	0	0	0	0
4103	18.30	9.30	9.30	-2.00	1.0400	20.30	1	18.30	7.50	0.00	0.00	0.00	0.00	0.00	0.00	0	0	0	0	18.3000	0	0	0	0
4103	18.30	9.30	9.30	-2.00	1.0400	20.30	1	18.30	7.50	0.00	0.00	0.00	0.00	0.00	0.00	0	0	0	0	18.3000	0	0	0	0
4103	18.30	9.30	9.30	-2.00	1.0400	20.30	1	18.30	7.50	0.00	0.00	0.00	0.00	0.00	0.00	0	0	0	0	18.3000	0	0	0	0
4103	18.30	9.30	9.30	-2.00	1.0400	20.30	1	18.30	7.50	0.00	0.00	0.00	0.00	0.00	0.00	0	0	0	0	18.3000	0	0	0	0
4103	18.30	9.30	9.30	-2.00	1.0400	20.30	1	18.30	7.50	0.00	0.00	0.00	0.00	0.00	0.00	0	0	0	0	18.3000	0	0	0	0
4103	18.30	9.30	9.30	-2.00	1.0400	20.30	1	18.30	7.50	0.00	0.00	0.00	0.00	0.00	0.00	0	0	0	0	18.3000	0	0	0	0
4103	0.00	0.00	9.30	-2.00	1.0400	20.30	0	18.30	7.50	0.00	0.00	0.00	0.00	0.00	0.00	0	0	0	0	18.3000	0	0	0	0
4103	18.30	9.30	9.30	-2.00	1.0400	20.30	1	18.30	7.50	0.00	0.00	0.00	0.00	0.00	0.00	0	0	0	0	18.3000	0	0	0	0
4105	0.00	0.00	38.30	-25.90	1.0400	200.00	0	180.00	0.00	0.00	0.00	0.00	0.00	0.00	0.00	0	0	0	0	180.0000	0	0	0	0
4111	10.00	0.00	0.00	0.00	1.0400	11.10	1	10.00	0.00	0.00	0.00	0.00	0.00	0.00	0.00	0	0	0	0	10.0000	0	0	0	0
4115	0.00	0.00	45.90	-10.00	1.0400	100.10	0	90.10	35.00	0.00	0.00	0.00	0.00	0.00	0.00	0	0	0	0	90.1000	0	0	0	0
4116	87.30	14.94	44.40	-9.70	1.0400	97.00	1	87.30	35.00	0.00	0.00	0.00	0.00	0.00	0.00	0	0	0	0	87.3000	0	0	0	0
4121	45.00	0.00	0.00	0.00	1.0400	50.00	1	45.00	0.00	0.00	0.00	0.00	0.00	0.00	0.00	0	0	0	0	45.0000	0	0	0	0
4133	200.00	0.00	0.00	0.00	1.0400	222.20	1	200.00	0.00	0.00	0.00	0.00	0.00	0.00	0.00	0	0	0	0	200.0000	0	0	0	0
4153	283.20	14.16	60.30	-40.80	1.0400	314.70	1	283.20	283.20	0.00	0.00	0.00	0.00	0.00	0.00	0	0	0	0	283.2000	0	0	0	0
4160	0.00	0.00	162.40	-35.40	1.0400	354.40	0	319.00	100.00	0.00	0.00	0.00	0.00	0.00	0.00	0	0	0	0	319.0000	0	0	0	0
4161	98.80	10.59	79.90	-17.40	1.0400	174.40	1	157.00	60.00	0.00	0.00	0.00	0.00	0.00	0.00	0	0	0	0	157.0000	0	0	0	0
4162	118.20	9.26	79.90	-17.40	1.0400	174.40	1	157.00	60.00	0.00	0.00	0.00	0.00	0.00	0.00	0	0	0	0	157.0000	0	0	0	0
4166	201.60	5.78	42.90	-29.00	1.0400	224.00	1	201.60	0.00	0.00	0.00	0.00	0.00	0.00	0.00	0	0	0	0	201.6000	0	0	0	0
4177	150.00	2.77	31.90	-21.60	1.0400	166.70	1	150.00	1.00	0.00	0.00	0.00	0.00	0.00	0.00	0	0	0	0	150.0000	0	0	0	0
5012	18.80	9.60	9.60	-2.10	1.0400	20.90	1	18.80	3.80	0.00	0.00	0.00	0.00	0.00	0.00	0	0	0	0	18.8000	0	0	0	0
5012	18.80	9.60	9.60	-2.10	1.0400	20.90	1	18.80	3.80	0.00	0.00	0.00	0.00	0.00	0.00	0	0	0	0	18.8000	0	0	0	0
5012	18.80	9.60	9.60	-2.10	1.0400	20.90	1	18.80	3.80	0.00	0.00	0.00	0.00	0.00	0.00	0	0	0	0	18.8000	0	0	0	0
5012	18.80	9.60	9.60	-2.10	1.0400	20.90	1	18.80	3.80	0.00	0.00	0.00	0.00	0.00	0.00	0	0	0	0	18.8000	0	0	0	0
5012	18.80	9.60	9.60	-2.10	1.0400	20.90	1	18.80	3.80	0.00	0.00	0.00	0.00	0.00	0.00	0	0	0	0	18.8000	0	0	0	0
5012	18.80	9.60	9.60	-2.10	1.0400	20.90	1	18.80	3.80	0.00	0.00	0.00	0.00	0.00	0.00	0	0	0	0	18.8000	0	0	0	0
5012	18.80	9.60	9.60	-2.10	1.0400	20.90	1	18.80	3.80	0.00	0.00	0.00	0.00	0.00	0.00	0	0	0	0	18.8000	0	0	0	0
5012	18.80	9.60	9.60	-2.10	1.0400	20.90	1	18.80	3.80	0.00	0.00	0.00	0.00	0.00	0.00	0	0	0	0	18.8000	0	0	0	0
5012	18.80	9.60	9.60	-2.10	1.0400	20.90	1	18.80	3.80	0.00	0.00	0.00	0.00	0.00	0.00	0	0	0	0	18.8000	0	0	0	0
5012	18.80	9.60	9.60	-2.10	1.0400	20.90	1	18.80	3.80	0.00	0.00	0.00	0.00	0.00	0.00	0	0	0	0	18.8000	0	0	0	0
5012	18.80	9.60	9.60	-2.10	1.0400	20.90	1	18.80	3.80	0.00	0.00	0.00	0.00	0.00	0.00	0	0	0	0	18.8000	0	0	0	0
5012	18.80	9.60	9.60	-2.10	1.0400	20.90	1	18.80	3.80	0.00	0.00	0.00	0.00	0.00	0.00	0	0	0	0	18.8000	0	0	0	0
5020	120.00	25.60	25.60	-17.30	1.0400	133.30	1	120.00	0.00	0.00	0.00	0.00	0.00	0.00	0.00	0	0	0	0	120.0000	0	0	0	0
5029	10.00	0.00	0.00	0.00	1.0400	11.10	1	10.00	0.00	0.00	0.00	0.00	0.00	0.00	0.00	0	0	0	0	10.0000	0	0	0	0
5049	10.00	10.70	10.70	-2.80	1.0400	25.60	1	23.00	10.00	0.00	0.00	0.00	0.00	0.00	0.00	0	0	0	0	23.0000	0	0	0	0
5049	0.00	0.00	9.20	-2.00	1.0400	20.00	0	18.00	10.00	0.00	0.00	0.00	0.00	0.00	0.00	0	0	0	0	18.0000	0	0	0	0
5051	0.00	0.00	19.10	-5.00	1.0400	45.60	0	41.00	13.00	0.00	0.00	0.00	0.00	0.00	0.00	0	0	0	0	41.0000	0	0	0	0
5057	0.00	0.00	198.50	-43.30	1.0400	433.30	0	390.00	26.00	0.00	0.00	0.00	0.00	0.00	0.00	0	0	0	0	390.0000	0	0	0	0
5058	0.00	0.00	121.70	-26.50	1.0400	265.60	0	239.00	46.00	0.00	0.00	0.00	0.00	0.00	0.00	0	0	0	0	239.0000	0	0	0	0
5080	44.20	0.00	0.00	0.00	1.0400	49.10	1	44.20	0.00	0.00	0.00	0.00	0.00	0.00	0.00	0	0	0	0	44.2000	0	0	0	0
5081	15.40	0.00	0.00	0.00	1.0400	17.10	1	15.40	0.00	0.00	0.00	0.00	0.00	0.00	0.00	0	0	0	0	15.4000	0	0	0	0
5089	0.00	0.00	105.90	-23.10	1.0400	231.10	0	208.00	65.00	0.00	0.00	0.00	0.00	0.00	0.00	0	0	0	0	208.0000	0	0	0	0
5115	10.00	0.00	0.00	0.00	1.0400	11.10	1	10.00	0.00	0.00	0.00	0.00	0.00	0.00	0.00	0	0	0	0	10.0000	0	0	0	0
5154	0.00	0.00	0.00	0.00	1.0400	58.00	0	52.20	0.00	0.00	0.00	0.00	0.00	0.00	0.00	0	0	0	0	52.2000	0	0	0	0
5166	0.00	0.00	31.00	-6.80	1.0400	67.80	0	61.00	10.00	0.00	0.00	0.00	0.00	0.00	0.00	0	0	0	0	61.0000	0	0	0	0
5167	0.00	0.00	31.00	-6.80	1.0400	67.80	0	61.00	10.00	0.00	0.00	0.00	0.00	0.00	0.00	0	0	0	0	61.0000	0	0	0	0
5170	52.80	11.20	11.20	-7.60	1.0400	58.70	1	52.80	1.00	0.00	0.00	0.00	0.00	0.00	0.00	0	0	0	0	52.8000	0	0	0	0
5174	49.60	0.00	0.00	0.00	1.0400	55.10	1	49.60	0.00	0.00	0.00	0.00	0.00	0.00	0.00	0	0	0	0	49.6000	0	0	0	0
5198	0.00	0.00	31.90	-21.60	1.0400	166.70	0	150.00	40.00	0.00	0.00	0.00	0.00	0.00	0.00	0	0	0	0	150.0000	0	0	0	0
5206	0.00	0.00	147.90	-32.20	1.0400	322.80	0	290.50	60.00	0.00	0.00	0.00	0.00	0.00	0.00	0	0	0	0	290.5000	0	0	0	0
5207	106.10	147.90	147.90	-32.20	1.0400	322.80	1	290.50	60.00	0.00	0.00	0.00	0.00	0.00	0.00	0	0	0	0	290.5000	0	0	0	0
5208	0.00	0.00	84.00	-18.30	1.0400	183.30	0	165.00	164.00	0.00	0.00	0.00	0.00	0.00	0.00	0	0	0	0	165.0000	0	0	0	0
5219	0.00	0.00	0.00	0.00	1.0400	55.60	0	50.00	0.00	0.00	0.00	0.00	0.00	0.00	0.00	0	0	0	0	50.0000	0	0	0	0
5231	0.00	0.00	0.00	0.00	1.0400	11.10	0	10.00	0.00	0.00	0.00	0.00	0.00	0.00	0.00	0	0	0	0	10.0000	0	0	0	0
5238	0.00	0.00	42.20	-28.50	1.0400	220.00	0	198.00	3.00	0.00	0.00	0.00	0.00	0.00	0.00	0	0	0	0	198.0000	0	0	0	0
5243	0.00	0.00	31.90	-21.60	1.0400	166.70	0	150.00	0.00	0.00	0.00	0.00	0.00	0.00	0.00	0	0	0	0	150.0000	0	0	0	0
5262	1100.00	312.53	443.40	-98.80	1.0400	1338.90	1	1205.00	1100.00	0.00	0.00	0.00	0.00	0.00	0.00	0	0	0	0	1205.0000	0	0	0	0
5263	1100.00	274.23	439.80	-98.00	1.0400	1327.80	1	1195.00	1100.00	0.00	0.00	0.00	0.00	0.00	0.00	0	0	0	0	1195.0000	0	0	0	0
5281	0.00	0.00	165.90	-36.20	1.0400	362.20	0	326.00	70.00	0.00	0.00	0.00	0.00	0.00	0.00	0	0	0	0	326.0000	0	0	0	0
5282	115.74	64.30	165.90	-36.20	1.0400	362.20	1	326.00	70.00	0.00	0.00	0.00	0.00	0.00	0.00	0	0	0	0	326.0000	0	0	0	0
5283	0.00	0.00	118.10	-25.80	1.0400	257.80	0	232.00	140.00	0.00	0.00	0.00	0.00	0.00	0.00	0	0	0	0	232.0000	0	0	0	0
5284	50.00	0.00	0.00	0.00	1.0400	55.60	1	50.00	0.00	0.00	0.00	0.00	0.00	0.00	0.00	0	0	0	0	50.0000	0	0	0	0
5290	21.00	8.10	8.10	-1.00	1.0400	23.30	1	21.00	1.00	0.00	0.00	0.00	0.00	0.00	0.00	0	0	0	0	21.0000	0	0	0	0
5290	21.00	8.10	8.10	-1.00	1.0400	23.30	1	21.00	1.00	0.00	0.00	0.00	0.00	0.00	0.00	0	0	0	0	21.0000	0	0	0	0
5319	0.00	0.00	227.20	-49.50	1.0400	495.90	0	446.30	60.00	0.00	0.00	0.00	0.00	0.00	0.00	0	0	0	0	446.3000	0	0	0	0
5320	0.00	0.00	167.60	-36.60	1.0400	365.90	0	329.30	113.00	0.00	0.00	0.00	0.00	0.00	0.00	0	0	0	0	329.3000	0	0	0	0
5321	0.00	0.00	166.90	-36.40	1.0400	364.20	0	327.80	113.00	0.00	0.00	0.00	0.00	0.00	0.00	0	0	0	0	327.8000	0	0	0	0
5324	200.00	99.82	289.10	-63.00	1.0400	631.10	1	568.00	200.00	0.00	0.00	0.00	0.00	0.00	0.00	0	0	0	0	568.0000	0	0	0	0
5325	122.00	29.44	62.10	-13.50	1.0400	135.60	1	122.00	15.00	0.00	0.00	0.00	0.00	0.00	0.00	0	0	0	0	122.0000	0	0	0	0
5326	118.00	50.81	60.10	-13.10	1.0400	131.10	1	118.00	15.00	0.00	0.00	0.00	0.00	0.00	0.00	0	0	0	0	118.0000	0	0	0	0
...
];

%% generator cost data
mpc.gencost = [
2	0	0	4	0.0000	0.000	0.000	0.00
2	0	0	4	0.0000	0.000	0.000	0.00
2	0	0	4	0.0000	0.000	0.000	0.00
2	0	0	4	0.0000	0.000	0.000	0.00
2	0	0	4	0.0000	0.000	0.000	0.00
2	0	0	4	0.0000	0.000	0.000	0.00
2	0	0	4	0.0000	0.000	0.000	0.00
2	0	0	4	0.0000	0.000	0.000	0.00
2	0	0	4	0.0000	0.000	0.000	0.00
2	0	0	4	0.0000	0.000	0.000	0.00
2	0	0	4	0.0000	0.000	0.000	0.00
2	0	0	4	0.0000	0.000	0.000	0.00
2	0	0	4	0.0000	0.005	4.658	0.00
2	0	0	4	0.0000	0.004	4.657	0.00
2	0	0	4	0.0000	0.005	4.657	0.00
2	0	0	4	0.0000	0.004	4.657	0.00
2	0	0	4	0.0000	0.004	4.656	0.00
2	0	0	4	0.0000	0.000	0.000	0.00
2	0	0	4	0.0000	0.004	4.666	0.00
2	0	0	4	0.0000	0.005	4.666	0.00
2	0	0	4	0.0000	0.000	0.000	0.00
2	0	0	4	0.0000	0.000	0.000	0.00
2	0	0	4	0.0000	0.000	0.000	0.00
2	0	0	4	0.0000	0.007	4.847	0.00
2	0	0	4	0.0000	0.008	4.847	0.00
2	0	0	4	0.0000	0.006	4.795	0.00
2	0	0	4	0.0000	0.006	4.795	0.00
2	0	0	4	0.0000	0.006	4.783	0.00
2	0	0	4	0.0000	0.007	4.783	0.00
2	0	0	4	0.0000	0.000	0.000	0.00
2	0	0	4	0.0000	0.000	0.000	0.00
2	0	0	4	0.0000	0.000	0.000	0.00
2	0	0	4	0.0000	0.000	0.000	0.00
2	0	0	4	0.0000	0.000	0.000	0.00
2	0	0	4	0.0000	0.004	4.688	0.00
2	0	0	4	0.0000	0.005	4.673	0.00
2	0	0	4	0.0000	0.000	0.000	0.00
2	0	0	4	0.0000	0.000	0.000	0.00
2	0	0	4	0.0000	0.000	0.000	0.00
2	0	0	4	0.0000	0.000	0.000	0.00
2	0	0	4	0.0000	0.000	0.000	0.00
2	0	0	4	0.0000	0.000	0.000	0.00
2	0	0	4	0.0000	0.000	0.000	0.00
2	0	0	4	0.0000	0.004	4.594	0.00
2	0	0	4	0.0000	0.003	4.598	0.00
2	0	0	4	0.0000	0.003	4.598	0.00
2	0	0	4	0.0000	0.003	4.598	0.00
2	0	0	4	0.0000	0.000	0.000	0.00
2	0	0	4	0.0000	0.000	0.000	0.00
2	0	0	4	0.0000	0.000	0.000	0.00
2	0	0	4	0.0000	0.007	4.956	0.00
2	0	0	4	0.0000	0.007	4.838	0.00
2	0	0	4	0.0000	0.007	4.838	0.00
2	0	0	4	0.0000	0.000	0.000	0.00
2	0	0	4	0.0000	0.007	4.844	0.00
2	0	0	4	0.0000	0.008	4.844	0.00
2	0	0	4	0.0000	0.006	4.776	0.00
2	0	0	4	0.0000	0.006	4.776	0.00
2	0	0	4	0.0000	0.005	4.765	0.00
2	0	0	4	0.0000	0.005	4.765	0.00
2	0	0	4	0.0000	0.000	0.000	0.00
2	0	0	4	0.0000	0.000	0.000	0.00
2	0	0	4	0.0000	0.000	0.000	0.00
2	0	0	4	0.0000	0.000	0.000	0.00
2	0	0	4	0.0000	0.000	0.000	0.00
2	0	0	4	0.0000	0.000	0.000	0.00
2	0	0	4	0.0000	0.000	0.000	0.00
2	0	0	4	0.0000	0.000	0.000	0.00
2	0	0	4	0.0000	0.000	0.000	0.00
2	0	0	4	0.0000	0.000	0.000	0.00
2	0	0	4	0.0000	0.000	0.000	0.00
2	0	0	4	0.0000	0.000	0.000	0.00
2	0	0	4	0.0000	0.000	0.000	0.00
2	0	0	4	0.0000	0.000	0.000	0.00
2	0	0	4	0.0000	0.000	0.000	0.00
2	0	0	4	0.0000	0.000	0.000	0.00
2	0	0	4	0.0000	0.000	0.000	0.00
2	0	0	4	0.0000	0.000	0.000	0.00
2	0	0	4	0.0000	0.000	0.000	0.00
2	0	0	4	0.0000	0.000	0.000	0.00
2	0	0	4	0.0000	0.000	0.000	0.00
2	0	0	4	0.0000	0.000	0.000	0.00
2	0	0	4	0.0000	0.000	0.000	0.00
2	0	0	4	0.0000	0.000	0.000	0.00
2	0	0	4	0.0000	0.000	0.000	0.00
2	0	0	4	0.0000	0.000	0.000	0.00
2	0	0	4	0.0000	0.000	0.000	0.00
2	0	0	4	0.0000	0.000	0.000	0.00
2	0	0	4	0.0000	0.000	0.000	0.00
2	0	0	4	0.0000	0.000	0.000	0.00
2	0	0	4	0.0000	0.000	0.000	0.00
2	0	0	4	0.0000	0.000	0.000	0.00
2	0	0	4	0.0000	0.000	0.000	0.00
2	0	0	4	0.0000	0.000	0.000	0.00
2	0	0	4	0.0000	0.000	0.000	0.00
2	0	0	4	0.0000	0.000	0.000	0.00
2	0	0	4	0.0000	0.000	0.000	0.00
2	0	0	4	0.0000	0.023	8.017	0.00
2	0	0	4	0.0000	0.023	8.017	0.00
2	0	0	4	0.0000	0.003	4.615	0.00
2	0	0	4	0.0000	0.000	0.000	0.00
2	0	0	4	0.0000	0.000	0.000	0.00
2	0	0	4	0.0000	0.000	0.000	0.00
2	0	0	4	0.0000	0.000	0.000	0.00
2	0	0	4	0.0000	0.000	0.000	0.00
2	0	0	4	0.0000	0.004	4.615	0.00
2	0	0	4	0.0000	0.006	4.779	0.00
2	0	0	4	0.0000	0.007	4.779	0.00
2	0	0	4	0.0000	0.006	4.772	0.00
2	0	0	4	0.0000	0.000	0.000	0.00
2	0	0	4	0.0000	0.000	0.000	0.00
2	0	0	4	0.0000	0.000	0.000	0.00
2	0	0	4	0.0000	0.007	8.017	0.00
2	0	0	4	0.0000	0.008	8.017	0.00
2	0	0	4	0.0000	0.000	0.000	0.00
2	0	0	4	0.0000	0.007	4.814	0.00
2	0	0	4	0.0000	0.007	4.808	0.00
2	0	0	4	0.0000	0.006	4.808	0.00
2	0	0	4	0.0000	0.008	4.999	0.00
2	0	0	4	0.0000	0.007	4.962	0.00
2	0	0	4	0.0000	0.006	4.782	0.00
2	0	0	4	0.0000	0.005	4.782	0.00
2	0	0	4	0.0000	0.000	0.000	0.00
2	0	0	4	0.0000	0.000	0.000	0.00
2	0	0	4	0.0000	0.000	0.000	0.00
2	0	0	4	0.0000	0.000	0.000	0.00
2	0	0	4	0.0000	0.003	4.596	0.00
2	0	0	4	0.0000	0.003	4.596	0.00
2	0	0	4	0.0000	0.003	4.596	0.00
2	0	0	4	0.0000	0.002	4.596	0.00
2	0	0	4	0.0000	0.004	4.596	0.00
2	0	0	4	0.0000	0.003	4.596	0.00
2	0	0	4	0.0000	0.003	4.596	0.00
2	0	0	4	0.0000	0.004	4.596	0.00
2	0	0	4	0.0000	0.003	4.596	0.00
2	0	0	4	0.0000	0.003	4.596	0.00
2	0	0	4	0.0000	0.003	4.596	0.00
2	0	0	4	0.0000	0.003	4.596	0.00
2	0	0	4	0.0000	0.000	0.000	0.00
2	0	0	4	0.0000	0.000	0.000	0.00
2	0	0	4	0.0000	0.005	4.692	0.00
2	0	0	4	0.0000	0.006	4.688	0.00
2	0	0	4	0.0000	0.000	0.000	0.00
2	0	0	4	0.0000	0.000	0.000	0.00
2	0	0	4	0.0000	0.000	0.000	0.00
2	0	0	4	0.0000	0.007	4.999	0.00
2	0	0	4	0.0000	0.006	4.782	0.00
2	0	0	4	0.0000	0.006	4.782	0.00
2	0	0	4	0.0000	0.000	0.000	0.00
2	0	0	4	0.0000	0.000	0.000	0.00
2	0	0	4	0.0000	0.002	4.596	0.00
2	0	0	4	0.0000	0.004	4.596	0.00
2	0	0	4	0.0000	0.003	4.596	0.00
2	0	0	4	0.0000	0.003	4.596	0.00
2	0	0	4	0.0000	0.004	4.596	0.00
2	0	0	4	0.0000	0.004	4.596	0.00
2	0	0	4	0.0000	0.004	4.596	0.00
2	0	0	4	0.0000	0.003	4.596	0.00
2	0	0	4	0.0000	0.003	4.596	0.00
2	0	0	4	0.0000	0.003	4.596	0.00
2	0	0	4	0.0000	0.002	4.596	0.00
2	0	0	4	0.0000	0.004	4.596	0.00
2	0	0	4	0.0000	0.000	0.000	0.00
2	0	0	4	0.0000	0.000	0.000	0.00
2	0	0	4	0.0000	0.007	8.017	0.00
2	0	0	4	0.0000	0.003	4.595	0.00
2	0	0	4	0.0000	0.008	8.017	0.00
2	0	0	4	0.0000	0.007	5.094	0.00
2	0	0	4	0.0000	0.007	4.891	0.00
2	0	0	4	0.0000	0.000	0.000	0.00
2	0	0	4	0.0000	0.000	0.000	0.00
2	0	0	4	0.0000	0.006	4.850	0.00
2	0	0	4	0.0000	0.000	0.000	0.00
2	0	0	4	0.0000	0.000	0.000	0.00
2	0	0	4	0.0000	0.005	4.653	0.00
2	0	0	4	0.0000	0.004	4.653	0.00
2	0	0	4	0.0000	0.000	0.000	0.00
2	0	0	4	0.0000	0.000	0.000	0.00
2	0	0	4	0.0000	0.000	0.000	0.00
2	0	0	4	0.0000	0.007	4.960	0.00
2	0	0	4	0.0000	0.007	4.960	0.00
2	0	0	4	0.0000	0.006	4.792	0.00
2	0	0	4	0.0000	0.000	0.000	0.00
2	0	0	4	0.0000	0.000	0.000	0.00
2	0	0	4	0.0000	0.000	0.000	0.00
2	0	0	4	0.0000	0.000	0.000	0.00
2	0	0	4	0.0000	0.002	8.000	0.00
2	0	0	4	0.0000	0.002	8.000	0.00
2	0	0	4	0.0000	0.006	5.008	0.00
2	0	0	4	0.0000	0.006	5.008	0.00
2	0	0	4	0.0000	0.008	4.882	0.00
2	0	0	4	0.0000	0.000	0.000	0.00
2	0	0	4	0.0000	0.000	0.000	0.00
2	0	0	4	0.0000	0.000	0.000	0.00
2	0	0	4	0.0000	0.007	5.169	0.00
2	0	0	4	0.0000	0.008	5.012	0.00
2	0	0	4	0.0000	0.007	5.010	0.00
2	0	0	4	0.0000	0.007	5.332	0.00
2	0	0	4	0.0000	0.004	4.735	0.00
2	0	0	4	0.0000	0.005	4.729	0.00
...
];

%% branch data
mpc.branch = [
1001	1064	0.005240	0.035800	0.00609	221.00	0.00	0.00	0.00000	0.000	1	0.00	0.00	77.49	15.47	-77.17	-13.94	0	0	0	0
1001	1064	0.005240	0.035800	0.00609	221.00	0.00	0.00	0.00000	0.000	1	0.00	0.00	77.49	15.47	-77.17	-13.94	0	0	0	0
1001	1071	0.004350	0.028080	0.00536	221.00	0.00	0.00	0.00000	0.000	1	0.00	0.00	24.14	0.76	-24.12	-1.16	0	0	0	0
1001	1071	0.004350	0.028080	0.00536	221.00	0.00	0.00	0.00000	0.000	1	0.00	0.00	24.14	0.76	-24.12	-1.16	0	0	0	0
1001	1071	0.001170	0.005741	0.00035	187.40	187.40	187.40	0.00000	0.000	1	0.00	0.00	117.20	-0.53	-117.05	1.26	0	0	0	0
1001	1071	0.001170	0.005741	0.00035	187.40	187.40	187.40	0.00000	0.000	1	0.00	0.00	117.20	-0.53	-117.05	1.26	0	0	0	0
1001	1071	0.001170	0.005741	0.00035	187.40	187.40	187.40	0.00000	0.000	1	0.00	0.00	117.20	-0.53	-117.05	1.26	0	0	0	0
1001	1071	0.001170	0.005741	0.00035	187.40	187.40	187.40	0.00000	0.000	1	0.00	0.00	117.20	-0.53	-117.05	1.26	0	0	0	0
1001	1130	0.004290	0.020476	0.00953	115.70	115.70	115.70	0.00000	0.000	1	0.00	0.00	35.74	5.88	-35.69	-6.60	0	0	0	0
1001	12667	0.000100	0.007500	0.00000	600.00	600.00	600.00	1.00000	0.000	1	0.00	0.00	-364.30	-20.77	364.43	30.39	0	0	0	0
1001	12667	0.000100	0.007500	0.00000	600.00	600.00	600.00	1.00000	0.000	1	0.00	0.00	-364.30	-20.77	364.43	30.39	0	0	0	0
1002	1007	0.077760	0.466930	0.06336	98.00	0.00	0.00	0.00000	0.000	1	0.00	0.00	-4.21	-4.94	4.22	-1.62	0	0	0	0
1010	1002	0.055520	0.135700	0.01777	98.00	0.00	0.00	0.00000	0.000	1	0.00	0.00	23.15	-1.75	-22.87	0.57	0	0	0	0
1004	1003	0.004500	0.030000	0.00000	373.00	373.00	373.00	1.00000	0.000	1	0.00	0.00	-177.51	33.55	178.91	-24.22	0	0	0	0
1003	1022	0.004850	0.020120	0.00341	450.00	0.00	0.00	0.00000	0.000	1	0.00	0.00	-232.83	18.91	235.36	-8.80	0	0	0	0
1003	1055	0.015740	0.037820	0.00513	98.00	0.00	0.00	0.00000	0.000	1	0.00	0.00	53.92	5.31	-53.48	-4.78	0	0	0	0
1004	1127	0.003790	0.031278	0.19521	547.00	547.00	547.00	0.00000	0.000	1	0.00	0.00	318.44	10.18	-314.76	-0.07	0	0	0	0
1004	3133	0.004200	0.030000	0.05500	523.00	0.00	0.00	0.00000	0.000	1	0.00	0.00	295.21	-19.81	-291.71	39.05	0	0	0	0
12733	1004	0.000357	0.024170	0.00000	321.70	321.70	321.70	1.00000	0.000	1	0.00	0.00	211.00	44.90	-210.84	-34.39	0	0	0	0
12734	1004	0.000883	0.039416	0.00000	245.70	245.70	245.70	1.00000	0.000	1	0.00	0.00	165.00	35.10	-164.77	-24.68	0	0	0	0
1004	12788	0.002920	0.025572	0.05772	444.70	444.70	444.70	0.00000	0.000	1	0.00	0.00	102.43	22.83	-102.11	-26.12	0	0	0	0
1004	12814	0.001680	0.015414	0.07006	685.00	685.00	685.00	0.00000	0.000	1	0.00	0.00	-162.95	12.32	163.38	-15.74	0	0	0	0
1006	1005	0.001272	0.029027	0.00000	174.50	174.50	174.50	1.00000	0.000	1	0.00	0.00	120.00	25.60	-119.82	-21.47	0	0	0	0
1025	1005	0.018420	0.082100	0.01204	149.00	0.00	0.00	0.00000	0.000	1	0.00	0.00	-15.76	6.02	15.81	-7.05	0	0	0	0
1005	1061	0.005990	0.024840	0.00422	221.00	0.00	0.00	0.00000	0.000	1	0.00	0.00	15.03	4.97	-15.01	-5.35	0	0	0	0
1067	1005	0.017110	0.041810	0.00548	98.00	0.00	0.00	0.00000	0.000	1	0.00	0.00	-17.28	-1.88	17.33	1.44	0	0	0	0
1005	1104	0.017810	0.057558	0.00962	125.40	125.40	125.40	0.00000	0.000	1	0.00	0.00	18.52	5.11	-18.46	-5.90	0	0	0	0
1005	1134	0.005750	0.029910	0.01080	125.20	125.20	125.20	0.00000	0.000	1	0.00	0.00	30.30	8.76	-30.25	-9.60	0	0	0	0
1005	13409	0.004370	0.023049	0.00567	127.00	127.00	127.00	0.00000	0.000	1	0.00	0.00	22.83	8.24	-22.80	-8.70	0	0	0	0
1007	1015	0.062240	0.373750	0.05072	98.00	0.00	0.00	0.00000	0.000	1	0.00	0.00	1.21	-3.45	-1.21	-1.94	0	0	0	0
1031	1007	0.048030	0.274340	0.04123	98.00	0.00	0.00	0.00000	0.000	1	0.00	0.00	16.06	-10.57	-15.91	7.15	0	0	0	0
1009	1008	0.001906	0.043370	0.00000	331.30	331.30	331.30	1.00000	0.000	1	0.00	0.00	222.00	0.00	-221.11	20.27	0	0	0	0
1008	1032	0.045010	0.110020	0.01441	220.00	0.00	0.00	0.00000	0.000	1	0.00	0.00	88.60	-18.22	-85.12	25.23	0	0	0	0
1008	1036	0.014900	0.071903	0.03034	184.00	184.00	184.00	0.00000	0.000	1	0.00	0.00	99.19	4.50	-97.79	-0.92	0	0	0	0
1008	1069	0.008300	0.036280	0.00553	149.00	0.00	0.00	0.00000	0.000	1	0.00	0.00	76.74	-8.63	-76.27	10.10	0	0	0	0
1008	13087	0.003270	0.010004	0.00208	134.50	134.50	134.50	0.00000	0.000	1	0.00	0.00	-15.92	2.26	15.93	-2.45	0	0	0	0
1008	13137	0.001420	0.006412	0.00389	107.20	107.20	107.20	0.00000	0.000	1	0.00	0.00	20.48	1.80	-20.47	-2.18	0	0	0	0
1008	13274	0.002550	0.011208	0.00192	116.80	116.80	116.80	0.00000	0.000	1	0.00	0.00	2.62	-0.02	-2.62	-0.18	0	0	0	0
1008	13277	0.001900	0.007996	0.00106	118.10	118.10	118.10	0.00000	0.000	1	0.00	0.00	-20.61	0.82	20.62	-0.90	0	0	0	0
1008	13361	0.002140	0.010128	0.00894	111.90	111.90	111.90	0.00000	0.000	1	0.00	0.00	2.16	-2.68	-2.16	1.74	0	0	0	0
1008	13399	0.000800	0.004062	0.00106	113.70	113.70	113.70	0.00000	0.000	1	0.00	0.00	-4.13	-0.10	4.13	-0.01	0	0	0	0
1011	1010	0.014021	0.522926	0.00000	29.60	29.60	29.60	1.00000	0.000	1	0.00	0.00	10.00	0.00	-9.99	0.49	0	0	0	0
1010	1015	0.047030	0.282430	0.03833	98.00	0.00	0.00	0.00000	0.000	1	0.00	0.00	6.32	-3.77	-6.30	-0.19	0	0	0	0
1010	1030	0.061600	0.369900	0.05020	98.00	0.00	0.00	0.00000	0.000	1	0.00	0.00	-19.48	0.61	19.71	-4.58	0	0	0	0
1012	1087	0.049340	0.204690	0.03473	149.00	0.00	0.00	0.00000	0.000	1	0.00	0.00	-96.72	25.97	101.55	-9.60	0	0	0	0
3051	1012	0.057100	0.249770	0.03804	149.00	0.00	0.00	0.00000	0.000	1	0.00	0.00	-88.77	34.72	93.74	-16.97	0	0	0	0
1013	1031	0.045090	0.270780	0.03675	98.00	0.00	0.00	0.00000	0.000	1	0.00	0.00	25.62	-8.23	-25.31	6.35	0	0	0	0
1047	1013	0.009470	0.061170	0.01167	292.00	292.00	292.00	0.00000	0.000	1	0.00	0.00	-125.09	83.11	127.08	-71.52	0	0	0	0
1086	1013	0.079000	0.193110	0.02529	220.00	0.00	0.00	0.00000	0.000	1	0.00	0.00	80.26	-25.26	-74.80	36.05	0	0	0	0
1013	12834	0.011070	0.038725	0.02006	148.00	148.00	148.00	0.00000	0.000	1	0.00	0.00	-45.30	21.10	45.57	-22.14	0	0	0	0
1013	13304	0.009920	0.044150	0.01442	124.40	124.40	124.40	0.00000	0.000	1	0.00	0.00	-61.99	14.26	62.38	-13.94	0	0	0	0
1014	1047	0.035660	0.147940	0.02510	177.00	177.00	177.00	0.00000	0.000	1	0.00	0.00	107.93	-38.26	-103.38	54.51	0	0	0	0
1014	1083	0.041050	0.182930	0.02682	149.00	0.00	0.00	0.00000	0.000	1	0.00	0.00	18.95	-16.36	-18.72	14.62	0	0	0	0
1014	12891	0.000100	0.007500	0.00000	600.00	600.00	600.00	1.00000	0.000	1	0.00	0.00	201.94	-1.08	-201.90	4.08	0	0	0	0
1014	13022	0.002000	0.007553	0.00122	279.00	279.00	279.00	0.00000	0.000	1	0.00	0.00	-121.74	28.02	122.04	-26.99	0	0	0	0
1014	13186	0.009280	0.044295	0.03104	251.00	251.00	251.00	0.00000	0.000	1	0.00	0.00	-198.92	28.64	202.60	-14.25	0	0	0	0
1014	13302	0.010430	0.036888	0.02358	162.00	162.00	162.00	0.00000	0.000	1	0.00	0.00	-50.76	6.72	51.04	-8.18	0	0	0	0
1014	13415	0.041930	0.238746	0.04113	121.80	121.80	121.80	0.00000	0.000	1	0.00	0.00	40.38	-8.32	-39.69	8.03	0	0	0	0
1016	1034	0.018280	0.109760	0.01489	220.00	0.00	0.00	0.00000	0.000	1	0.00	0.00	111.00	-3.31	-108.87	14.54	0	0	0	0
1068	1016	0.027730	0.158370	0.02380	98.00	0.00	0.00	0.00000	0.000	1	0.00	0.00	14.91	-9.15	-14.83	7.09	0	0	0	0
1016	1106	0.014200	0.062272	0.03002	122.80	122.80	122.80	0.00000	0.000	1	0.00	0.00	52.03	16.08	-51.62	-17.42	0	0	0	0
1016	12795	0.011240	0.045645	0.01261	120.00	120.00	120.00	0.00000	0.000	1	0.00	0.00	55.07	14.80	-54.73	-14.70	0	0	0	0
13014	1016	0.002608	0.048168	0.00000	317.90	317.90	317.90	1.00000	0.000	1	0.00	0.00	207.20	23.09	-206.15	-3.73	0	0	0	0
1018	1017	0.032270	0.078870	0.01033	98.00	0.00	0.00	0.00000	0.000	1	0.00	0.00	-2.24	-1.94	2.24	0.88	0	0	0	0
1017	1029	0.032440	0.141880	0.02161	149.00	0.00	0.00	0.00000	0.000	1	0.00	0.00	30.99	-3.97	-30.68	3.07	0	0	0	0
1017	1037	0.007520	0.033520	0.00491	221.00	0.00	0.00	0.00000	0.000	1	0.00	0.00	47.36	-17.57	-47.18	17.88	0	0	0	0
1047	1017	0.036000	0.156000	0.02400	150.00	0.00	0.00	0.00000	0.000	1	0.00	0.00	120.06	-3.32	-115.26	21.57	0	0	0	0
1024	1018	0.010940	0.065720	0.00892	98.00	0.00	0.00	0.00000	0.000	1	0.00	0.00	18.25	-6.88	-18.21	6.20	0	0	0	0
1018	1037	0.009340	0.040028	0.00938	130.70	130.70	130.70	0.00000	0.000	1	0.00	0.00	35.25	-18.94	-35.11	18.58	0	0	0	0
1018	1100	0.001660	0.007785	0.03374	98.70	98.70	98.70	0.00000	0.000	1	0.00	0.00	-10.18	12.34	10.19	-15.80	0	0	0	0
1018	13414	0.009590	0.037572	0.00801	101.70	101.70	101.70	0.00000	0.000	1	0.00	0.00	-4.70	2.32	4.70	-3.14	0	0	0	0
1019	1029	0.003620	0.015623	0.00270	124.00	124.00	124.00	0.00000	0.000	1	0.00	0.00	63.09	-8.34	-62.94	8.68	0	0	0	0
1019	1037	0.019450	0.094063	0.02595	132.10	132.10	132.10	0.00000	0.000	1	0.00	0.00	-19.38	-4.01	19.45	1.67	0	0	0	0
1019	1040	0.049780	0.206510	0.03504	149.00	0.00	0.00	0.00000	0.000	1	0.00	0.00	-5.31	-3.42	5.32	-0.14	0	0	0	0
1019	1045	0.015220	0.037200	0.00487	221.00	0.00	0.00	0.00000	0.000	1	0.00	0.00	2.28	11.56	-2.26	-12.00	0	0	0	0
1019	1045	0.010370	0.037831	0.00493	113.40	113.40	113.40	0.00000	0.000	1	0.00	0.00	0.87	12.04	-0.85	-12.49	0	0	0	0
1019	1056	0.021200	0.073765	0.03737	122.50	122.50	122.50	0.00000	0.000	1	0.00	0.00	-3.82	-23.29	3.92	19.72	0	0	0	0
1019	1064	0.010410	0.048118	0.01060	125.70	125.70	125.70	0.00000	0.000	1	0.00	0.00	1.79	8.37	-1.78	-9.41	0	0	0	0
1019	1071	0.004400	0.028000	0.00540	225.00	0.00	0.00	0.00000	0.000	1	0.00	0.00	-72.80	-0.72	73.02	1.61	0	0	0	0
1071	1019	0.004400	0.028000	0.00540	225.00	0.00	0.00	0.00000	0.000	1	0.00	0.00	73.02	1.61	-72.80	-0.72	0	0	0	0
1019	1084	0.030000	0.160000	0.02500	220.00	0.00	0.00	0.00000	0.000	1	0.00	0.00	44.30	-8.96	-43.71	9.54	0	0	0	0
1021	1020	0.001982	0.046900	0.00000	354.40	354.40	354.40	1.00000	0.000	1	0.00	0.00	231.50	24.05	-230.51	-0.56	0	0	0	0
1020	1025	0.008280	0.034340	0.00583	149.00	0.00	0.00	0.00000	0.000	1	0.00	0.00	-56.16	33.37	56.49	-32.59	0	0	0	0
1084	1020	0.010560	0.063370	0.00860	221.00	0.00	0.00	0.00000	0.000	1	0.00	0.00	-9.37	-22.53	9.43	21.99	0	0	0	0
1020	3059	0.018900	0.060000	0.00600	300.00	0.00	0.00	0.00000	0.000	1	0.00	0.00	167.41	15.27	-162.38	0.11	0	0	0	0
1020	3130	0.009960	0.069380	0.01134	221.00	0.00	0.00	0.00000	0.000	1	0.00	0.00	109.82	10.52	-108.68	-3.74	0	0	0	0
1023	1022	0.001460	0.067086	0.00000	217.60	217.60	217.60	1.00000	0.000	1	0.00	0.00	180.00	18.16	-179.56	2.14	0	0	0	0
1022	1028	0.014330	0.092530	0.01765	221.00	0.00	0.00	0.00000	0.000	1	0.00	0.00	-27.90	3.33	28.01	-4.52	0	0	0	0
1022	1028	0.014330	0.092530	0.01765	221.00	0.00	0.00	0.00000	0.000	1	0.00	0.00	-27.90	3.33	28.01	-4.52	0	0	0	0
1024	1090	0.014140	0.063030	0.00924	149.00	0.00	0.00	0.00000	0.000	1	0.00	0.00	-90.40	15.01	91.56	-10.80	0	0	0	0
1024	12803	0.003830	0.019392	0.00677	116.20	116.20	116.20	0.00000	0.000	1	0.00	0.00	25.02	-26.00	-24.97	25.54	0	0	0	0
1026	1025	0.003250	0.072080	0.00000	166.40	166.40	166.40	1.00000	0.000	1	0.00	0.00	124.20	23.33	-123.72	-12.69	0	0	0	0
1025	1034	0.006270	0.026592	0.00567	131.60	131.60	131.60	0.00000	0.000	1	0.00	0.00	16.78	15.17	-16.75	-15.63	0	0	0	0
1025	1067	0.010500	0.046690	0.01214	130.40	130.40	130.40	0.00000	0.000	1	0.00	0.00	-11.76	15.18	11.80	-16.28	0	0	0	0
1025	1084	0.007240	0.033373	0.00938	121.80	121.80	121.80	0.00000	0.000	1	0.00	0.00	77.96	8.92	-77.54	-7.93	0	0	0	0
1027	1045	0.025050	0.109570	0.01669	221.00	0.00	0.00	0.00000	0.000	1	0.00	0.00	-32.42	14.34	32.74	-14.69	0	0	0	0
1056	1027	0.031210	0.076300	0.00999	250.00	0.00	0.00	0.00000	0.000	1	0.00	0.00	48.71	-1.53	-48.01	2.19	0	0	0	0
1027	1118	0.004420	0.020002	0.00519	135.00	135.00	135.00	0.00000	0.000	1	0.00	0.00	24.26	46.50	-24.14	-46.49	0	0	0	0
1027	1132	0.011620	0.045374	0.00653	111.30	111.30	111.30	0.00000	0.000	1	0.00	0.00	-45.25	4.40	45.48	-4.17	0	0	0	0
1028	3109	0.004280	0.018750	0.00286	453.00	453.00	453.00	0.00000	0.000	1	0.00	0.00	174.49	10.74	-173.26	-5.66	0	0	0	0
13185	1028	0.001826	0.036194	0.00000	190.10	190.10	190.10	1.00000	0.000	1	0.00	0.00	158.00	17.33	-157.57	-8.88	0	0	0	0
1028	13359	0.003380	0.017441	0.00314	122.40	122.40	122.40	0.00000	0.000	1	0.00	0.00	-83.46	3.18	83.68	-2.37	0	0	0	0
1029	1045	0.009710	0.032384	0.00900	146.90	146.90	146.90	0.00000	0.000	1	0.00	0.00	-28.05	19.82	28.16	-20.36	0	0	0	0
1029	1056	0.020540	0.117330	0.01763	221.00	0.00	0.00	0.00000	0.000	1	0.00	0.00	-9.65	-14.11	9.70	12.57	0	0	0	0
1030	1038	0.074040	0.422850	0.06354	98.00	0.00	0.00	0.00000	0.000	1	0.00	0.00	-22.59	1.95	22.97	-6.58	0	0	0	0
1083	1030	0.065370	0.373340	0.05610	98.00	0.00	0.00	0.00000	0.000	1	0.00	0.00	22.05	-6.60	-21.74	2.39	0	0	0	0
1033	1032	0.002830	0.067580	0.00000	170.00	0.00	0.00	1.00000	0.000	1	0.00	0.00	-107.89	19.27	108.21	-11.46	0	0	0	0
1032	1036	0.019560	0.117460	0.01594	98.00	0.00	0.00	0.00000	0.000	1	0.00	0.00	-28.21	5.59	28.37	-6.26	0	0	0	0
1038	1032	0.045000	0.110000	0.01500	155.00	0.00	0.00	0.00000	0.000	1	0.00	0.00	64.04	-6.62	-62.29	9.33	0	0	0	0
1032	1088	0.002580	0.010562	0.00379	450.00	213.80	213.80	0.00000	0.000	1	0.00	0.00	219.98	-34.69	-218.73	39.42	0	0	0	0
1032	12893	0.019630	0.088450	0.02318	136.80	136.80	136.80	0.00000	0.000	1	0.00	0.00	-47.68	4.77	48.12	-5.16	0	0	0	0
1032	13137	0.014190	0.065822	0.01616	228.00	228.00	228.00	0.00000	0.000	1	0.00	0.00	-153.99	17.99	157.32	-4.21	0	0	0	0
1032	13140	0.008080	0.032467	0.00380	122.90	122.90	122.90	0.00000	0.000	1	0.00	0.00	15.66	-3.76	-15.64	3.45	0	0	0	0
1032	13211	0.006130	0.030331	0.00516	116.60	116.60	116.60	0.00000	0.000	1	0.00	0.00	19.15	-3.92	-19.13	3.50	0	0	0	0
1032	13214	0.012140	0.040141	0.00600	140.70	140.70	140.70	0.00000	0.000	1	0.00	0.00	3.99	-2.29	-3.99	1.69	0	0	0	0
1032	13218	0.006150	0.025021	0.00844	117.50	117.50	117.50	0.00000	0.000	1	0.00	0.00	4.82	-3.43	-4.82	2.57	0	0	0	0
1032	13415	0.005370	0.025632	0.01022	145.60	145.60	145.60	0.00000	0.000	1	0.00	0.00	5.46	-3.37	-5.46	2.33	0	0	0	0
1033	1081	0.003000	0.031000	0.05900	637.00	637.00	637.00	0.00000	0.000	1	0.00	0.00	527.44	-25.24	-519.39	102.25	0	0	0	0
1033	3050	0.013900	0.136000	0.26200	647.00	0.00	0.00	0.00000	0.000	1	0.00	0.00	302.14	12.50	-289.83	80.54	0	0	0	0
1033	12594	0.002860	0.023056	0.06719	439.00	439.00	439.00	0.00000	0.000	1	0.00	0.00	281.43	15.89	-279.24	-5.14	0	0	0	0
12687	1033	0.000703	0.026935	0.00000	251.40	251.40	251.40	1.00000	0.000	1	0.00	0.00	0.00	0.00	0.00	0.00	0	0	0	0
12688	1033	0.001525	0.068629	0.00000	231.10	231.10	231.10	1.00000	0.000	1	0.00	0.00	200.00	0.00	-199.41	26.74	0	0	0	0
1033	12855	0.000480	0.004065	0.00955	750.70	750.70	750.70	0.00000	0.000	1	0.00	0.00	-384.36	152.87	385.15	-147.15	0	0	0	0
...